
  EPA STORM WATER MANAGEMENT MODEL - VERSION 5.1 (Build 5.1.001)
  --------------------------------------------------------------

  Input Files 
  WARNING 04: minimum elevation drop used for Conduit Outfall2_UsCo
  WARNING 05: minimum slope used for Conduit Outfall2_UsCo
  WARNING 04: minimum elevation drop used for Conduit Catch1_DsCo
  WARNING 05: minimum slope used for Conduit Catch1_DsCo
  WARNING 04: minimum elevation drop used for Conduit Junction1_DsCo
  WARNING 05: minimum slope used for Conduit Junction1_DsCo
  WARNING 04: minimum elevation drop used for Conduit DryBasin1_DsCo
  WARNING 05: minimum slope used for Conduit DryBasin1_DsCo
  WARNING 04: minimum elevation drop used for Conduit Divider3_DsCo
  WARNING 05: minimum slope used for Conduit Divider3_DsCo
  WARNING 04: minimum elevation drop used for Conduit Divider3_DsCo2
  WARNING 05: minimum slope used for Conduit Divider3_DsCo2
  WARNING 04: minimum elevation drop used for Conduit InfiltrationBasin1_DsCo
  WARNING 05: minimum slope used for Conduit InfiltrationBasin1_DsCo
  WARNING 04: minimum elevation drop used for Conduit WetBasin1_DsCo
  WARNING 05: minimum slope used for Conduit WetBasin1_DsCo
  WARNING 04: minimum elevation drop used for Conduit CartridgeFilter1_DsCo
  WARNING 05: minimum slope used for Conduit CartridgeFilter1_DsCo
  WARNING 04: minimum elevation drop used for Conduit BedFilter1_DsCo
  WARNING 05: minimum slope used for Conduit BedFilter1_DsCo
  WARNING 04: minimum elevation drop used for Conduit TreatmentVault1_DsCo
  WARNING 05: minimum slope used for Conduit TreatmentVault1_DsCo
  WARNING 04: minimum elevation drop used for Conduit DryBasin1_OtCo
  WARNING 05: minimum slope used for Conduit DryBasin1_OtCo
  WARNING 04: minimum elevation drop used for Conduit DryBasin1_InCo
  WARNING 05: minimum slope used for Conduit DryBasin1_InCo
  WARNING 04: minimum elevation drop used for Conduit InfiltrationBasin1_InCo
  WARNING 05: minimum slope used for Conduit InfiltrationBasin1_InCo
  WARNING 04: minimum elevation drop used for Conduit WetBasin1_InCo
  WARNING 05: minimum slope used for Conduit WetBasin1_InCo
  WARNING 04: minimum elevation drop used for Conduit WetBasin1_WetInCo
  WARNING 05: minimum slope used for Conduit WetBasin1_WetInCo
  WARNING 04: minimum elevation drop used for Conduit WetBasin1_SurInCo
  WARNING 05: minimum slope used for Conduit WetBasin1_SurInCo
  WARNING 04: minimum elevation drop used for Conduit WetBasin1_WetOtCo
  WARNING 05: minimum slope used for Conduit WetBasin1_WetOtCo
  WARNING 04: minimum elevation drop used for Conduit WetBasin1_SurOtCo
  WARNING 05: minimum slope used for Conduit WetBasin1_SurOtCo
  WARNING 04: minimum elevation drop used for Conduit BedFilter1_OtCo
  WARNING 05: minimum slope used for Conduit BedFilter1_OtCo
  WARNING 04: minimum elevation drop used for Conduit BedFilter1_InCo
  WARNING 05: minimum slope used for Conduit BedFilter1_InCo
  WARNING 04: minimum elevation drop used for Conduit CartridgeFilter1_OtCo
  WARNING 05: minimum slope used for Conduit CartridgeFilter1_OtCo
  WARNING 04: minimum elevation drop used for Conduit CartridgeFilter1_TrCo
  WARNING 05: minimum slope used for Conduit CartridgeFilter1_TrCo
  WARNING 04: minimum elevation drop used for Conduit CartridgeFilter1_ByCo
  WARNING 05: minimum slope used for Conduit CartridgeFilter1_ByCo
  WARNING 04: minimum elevation drop used for Conduit CartridgeFilter1_InCo
  WARNING 05: minimum slope used for Conduit CartridgeFilter1_InCo
  WARNING 04: minimum elevation drop used for Conduit TreatmentVault1_OtCo
  WARNING 05: minimum slope used for Conduit TreatmentVault1_OtCo
  WARNING 04: minimum elevation drop used for Conduit TreatmentVault1_TrCo
  WARNING 05: minimum slope used for Conduit TreatmentVault1_TrCo
  WARNING 04: minimum elevation drop used for Conduit TreatmentVault1_ByCo
  WARNING 05: minimum slope used for Conduit TreatmentVault1_ByCo
  WARNING 04: minimum elevation drop used for Conduit TreatmentVault1_InCo
  WARNING 05: minimum slope used for Conduit TreatmentVault1_InCo
  
  *********************************************************
  NOTE: The summary statistics displayed in this report are
  based on results found at every computational time step,  
  not just on results from each reporting time step.
  *********************************************************
  
  ****************
  Analysis Options
  ****************
  Flow Units ............... CFS
  Process Models:
    Rainfall/Runoff ........ YES
    Snowmelt ............... YES
    Groundwater ............ YES
    Flow Routing ........... YES
    Ponding Allowed ........ NO
    Water Quality .......... YES
  Flow Routing Method ...... KINWAVE
  Starting Date ............ OCT-01-1990 00:00:00
  Ending Date .............. OCT-01-1996 00:00:00
  Antecedent Dry Days ...... 0.0
  Report Time Step ......... 00:15:00
  Routing Time Step ........ 30.00 sec
  
  
  *********************
  Rainfall File Summary
  *********************
  Station    First        Last         Recording   Periods    Periods    Periods
  ID         Date         Date         Frequency  w/Precip    Missing    Malfunc.
  -------------------------------------------------------------------------------
  1          NOV-02-1988  NOV-14-2006     60 min     13389          0          0

  
  **************************        Volume        Volume
  Flow Routing Continuity        acre-feet      10^6 gal
  **************************     ---------     ---------
  Dry Weather Inflow .......         0.000         0.000
  Wet Weather Inflow .......         0.000         0.000
  Groundwater Inflow .......         0.000         0.000
  RDII Inflow ..............         0.000         0.000
  External Inflow ..........         0.000         0.000
  External Outflow .........         0.000         0.000
  Internal Outflow .........         0.000         0.000
  Evaporation Loss .........         0.000         0.000
  Seepage Loss .............         0.000         0.000
  Initial Stored Volume ....         0.000         0.000
  Final Stored Volume ......         0.000         0.000
  Continuity Error (%) .....         0.000
  
  
  **************************           TSS           FSP            TP           SRP            TN
  Quality Routing Continuity           lbs           lbs           lbs           lbs           lbs
  **************************    ----------    ----------    ----------    ----------    ----------
  Dry Weather Inflow .......         0.000         0.000         0.000         0.000         0.000
  Wet Weather Inflow .......         0.000         0.000         0.000         0.000         0.000
  Groundwater Inflow .......         0.000         0.000         0.000         0.000         0.000
  RDII Inflow ..............         0.000         0.000         0.000         0.000         0.000
  External Inflow ..........         0.000         0.000         0.000         0.000         0.000
  Internal Flooding ........         0.000         0.000         0.000         0.000         0.000
  External Outflow .........         0.000         0.000         0.000         0.000         0.000
  Mass Reacted .............         0.000         0.000         0.000         0.000         0.000
  Initial Stored Mass ......         0.000         0.000         0.000         0.000         0.000
  Final Stored Mass ........         0.000         0.000         0.000         0.000         0.000
  Continuity Error (%) .....         0.000         0.000         0.000         0.000         0.000
  
  
  **************************           DIN
  Quality Routing Continuity           lbs
  **************************    ----------
  Dry Weather Inflow .......         0.000
  Wet Weather Inflow .......         0.000
  Groundwater Inflow .......         0.000
  RDII Inflow ..............         0.000
  External Inflow ..........         0.000
  Internal Flooding ........         0.000
  External Outflow .........         0.000
  Mass Reacted .............         0.000
  Initial Stored Mass ......         0.000
  Final Stored Mass ........         0.000
  Continuity Error (%) .....         0.000
  
  
  ********************************
  Highest Flow Instability Indexes
  ********************************
  All links are stable.
  
  
  *************************
  Routing Time Step Summary
  *************************
  Minimum Time Step           :    30.00 sec
  Average Time Step           :    30.00 sec
  Maximum Time Step           :    30.00 sec
  Percent in Steady State     :     0.00
  Average Iterations per Step :     1.00
  Percent Not Converging      :     0.00
  
  
  ******************
  Node Depth Summary
  ******************
  
  ---------------------------------------------------------------------
                                 Average  Maximum  Maximum  Time of Max
                                   Depth    Depth      HGL   Occurrence
  Node                 Type         Feet     Feet     Feet  days hr:min
  ---------------------------------------------------------------------
  Outfall2_UsJu        JUNCTION     0.00     0.00     0.00     0  00:00
  Catch1_Ju            JUNCTION     0.00     0.00     0.00     0  00:00
  Junction1            JUNCTION     0.00     0.00     0.00     0  00:00
  DryBasin1_InJu       JUNCTION     0.00     0.00     0.00     0  00:00
  DryBasin1_TrJu       JUNCTION     0.00     0.00     0.00     0  00:00
  DryBasin1_OuJu       JUNCTION     0.00     0.00     0.00     0  00:00
  InfiltrationBasin1_InJu JUNCTION     0.00     0.00     0.00     0  00:00
  InfiltrationBasin1_OuJu JUNCTION     0.00     0.00     0.00     0  00:00
  WetBasin1_InJu       JUNCTION     0.00     0.00     0.00     0  00:00
  WetBasin1_OuJu       JUNCTION     0.00     0.00     0.00     0  00:00
  WetBasin1_WetTrJu    JUNCTION     0.00     0.00     0.00     0  00:00
  WetBasin1_SurTrJu    JUNCTION     0.00     0.00     0.00     0  00:00
  BedFilter1_InJu      JUNCTION     0.00     0.00     0.00     0  00:00
  BedFilter1_TrJu      JUNCTION     0.00     0.00     0.00     0  00:00
  BedFilter1_OuJu      JUNCTION     0.00     0.00     0.00     0  00:00
  CartridgeFilter1_InJu JUNCTION     0.00     0.00     0.00     0  00:00
  CartridgeFilter1_TrJu JUNCTION     0.00     0.00     0.00     0  00:00
  CartridgeFilter1_OuJu JUNCTION     0.00     0.00     0.00     0  00:00
  TreatmentVault1_InJu JUNCTION     0.00     0.00     0.00     0  00:00
  TreatmentVault1_TrJu JUNCTION     0.00     0.00     0.00     0  00:00
  TreatmentVault1_OuJu JUNCTION     0.00     0.00     0.00     0  00:00
  Outfall2             OUTFALL      0.00     0.00     0.00     0  00:00
  GW                   OUTFALL      0.00     0.00     0.00     0  00:00
  Divider3             DIVIDER      0.00     0.00     0.00     0  00:00
  WetBasin1_Di         DIVIDER      0.00     0.00     0.00     0  00:00
  CartridgeFilter1_Di  DIVIDER      0.00     0.00     0.00     0  00:00
  TreatmentVault1_Di   DIVIDER      0.00     0.00     0.00     0  00:00
  DryBasin1_St         STORAGE      0.00     0.00     0.00     0  00:00
  InfiltrationBasin1_St STORAGE      0.00     0.00     0.00     0  00:00
  WetBasin1_WetSt      STORAGE      0.00     0.00     0.00     0  00:00
  WetBasin1_SurSt      STORAGE      0.00     0.00     0.00     0  00:00
  BedFilter1_St        STORAGE      0.00     0.00     0.00     0  00:00
  
  
  *******************
  Node Inflow Summary
  *******************
  
  -------------------------------------------------------------------------------------------------
                                  Maximum  Maximum                  Lateral       Total        Flow
                                  Lateral    Total  Time of Max      Inflow      Inflow     Balance
                                   Inflow   Inflow   Occurrence      Volume      Volume       Error
  Node                 Type           CFS      CFS  days hr:min    10^6 gal    10^6 gal     Percent
  -------------------------------------------------------------------------------------------------
  Outfall2_UsJu        JUNCTION      0.00     0.00     0  00:00           0           0       0.000gal
  Catch1_Ju            JUNCTION      0.00     0.00     0  00:00           0           0       0.000gal
  Junction1            JUNCTION      0.00     0.00     0  00:00           0           0       0.000gal
  DryBasin1_InJu       JUNCTION      0.00     0.00     0  00:00           0           0       0.000gal
  DryBasin1_TrJu       JUNCTION      0.00     0.00     0  00:00           0           0       0.000gal
  DryBasin1_OuJu       JUNCTION      0.00     0.00     0  00:00           0           0       0.000gal
  InfiltrationBasin1_InJu JUNCTION      0.00     0.00     0  00:00           0           0       0.000gal
  InfiltrationBasin1_OuJu JUNCTION      0.00     0.00     0  00:00           0           0       0.000gal
  WetBasin1_InJu       JUNCTION      0.00     0.00     0  00:00           0           0       0.000gal
  WetBasin1_OuJu       JUNCTION      0.00     0.00     0  00:00           0           0       0.000gal
  WetBasin1_WetTrJu    JUNCTION      0.00     0.00     0  00:00           0           0       0.000gal
  WetBasin1_SurTrJu    JUNCTION      0.00     0.00     0  00:00           0           0       0.000gal
  BedFilter1_InJu      JUNCTION      0.00     0.00     0  00:00           0           0       0.000gal
  BedFilter1_TrJu      JUNCTION      0.00     0.00     0  00:00           0           0       0.000gal
  BedFilter1_OuJu      JUNCTION      0.00     0.00     0  00:00           0           0       0.000gal
  CartridgeFilter1_InJu JUNCTION      0.00     0.00     0  00:00           0           0       0.000gal
  CartridgeFilter1_TrJu JUNCTION      0.00     0.00     0  00:00           0           0       0.000gal
  CartridgeFilter1_OuJu JUNCTION      0.00     0.00     0  00:00           0           0       0.000gal
  TreatmentVault1_InJu JUNCTION      0.00     0.00     0  00:00           0           0       0.000gal
  TreatmentVault1_TrJu JUNCTION      0.00     0.00     0  00:00           0           0       0.000gal
  TreatmentVault1_OuJu JUNCTION      0.00     0.00     0  00:00           0           0       0.000gal
  Outfall2             OUTFALL       0.00     0.00     0  00:00           0           0       0.000gal
  GW                   OUTFALL       0.00     0.00     0  00:00           0           0       0.000gal
  Divider3             DIVIDER       0.00     0.00     0  00:00           0           0       0.000gal
  WetBasin1_Di         DIVIDER       0.00     0.00     0  00:00           0           0       0.000gal
  CartridgeFilter1_Di  DIVIDER       0.00     0.00     0  00:00           0           0       0.000gal
  TreatmentVault1_Di   DIVIDER       0.00     0.00     0  00:00           0           0       0.000gal
  DryBasin1_St         STORAGE       0.00     0.00     0  00:00           0           0       0.000gal
  InfiltrationBasin1_St STORAGE       0.00     0.00     0  00:00           0           0       0.000gal
  WetBasin1_WetSt      STORAGE       0.00     0.00     0  00:00           0           0       0.000gal
  WetBasin1_SurSt      STORAGE       0.00     0.00     0  00:00           0           0       0.000gal
  BedFilter1_St        STORAGE       0.00     0.00     0  00:00           0           0       0.000gal
  
  
  **********************
  Node Surcharge Summary
  **********************
  
  Surcharging occurs when water rises above the top of the highest conduit.
  ---------------------------------------------------------------------
                                               Max. Height   Min. Depth
                                   Hours       Above Crown    Below Rim
  Node                 Type      Surcharged           Feet         Feet
  ---------------------------------------------------------------------
  Outfall2_UsJu        JUNCTION    52608.01          0.000        4.000
  Catch1_Ju            JUNCTION    52608.01          0.000        4.000
  Junction1            JUNCTION    52608.01          0.000        4.000
  DryBasin1_InJu       JUNCTION    52608.01          0.000        4.000
  DryBasin1_TrJu       JUNCTION    52608.01          0.000        4.000
  InfiltrationBasin1_InJu JUNCTION    52608.01          0.000        4.000
  WetBasin1_SurTrJu    JUNCTION    52608.01          0.000        4.000
  BedFilter1_InJu      JUNCTION    52608.01          0.000        4.000
  BedFilter1_TrJu      JUNCTION    52608.01          0.000        4.000
  CartridgeFilter1_InJu JUNCTION    52608.01          0.000        4.000
  CartridgeFilter1_TrJu JUNCTION    52608.01          0.000        4.000
  CartridgeFilter1_OuJu JUNCTION    52608.01          0.000        4.000
  TreatmentVault1_InJu JUNCTION    52608.01          0.000        4.000
  TreatmentVault1_TrJu JUNCTION    52608.01          0.000        4.000
  TreatmentVault1_OuJu JUNCTION    52608.01          0.000        4.000
  WetBasin1_Di         DIVIDER     52608.01          0.000        4.000
  CartridgeFilter1_Di  DIVIDER     52608.01          0.000        4.000
  TreatmentVault1_Di   DIVIDER     52608.01          0.000        4.000
  
  
  *********************
  Node Flooding Summary
  *********************
  
  No nodes were flooded.
  
  
  **********************
  Storage Volume Summary
  **********************
  
  --------------------------------------------------------------------------------------------------
                         Average     Avg  Evap Infil       Maximum     Max    Time of Max    Maximum
                          Volume    Pcnt  Pcnt  Pcnt        Volume    Pcnt     Occurrence    Outflow
  Storage Unit          1000 ft3    Full  Loss  Loss      1000 ft3    Full    days hr:min        CFS
  --------------------------------------------------------------------------------------------------
  DryBasin1_St             0.000       0     0     0         0.000       0       0  00:00       0.00
  InfiltrationBasin1_St     0.000       0     0     0         0.000       0       0  00:00       0.00
  WetBasin1_WetSt          0.000       0     0     0         0.000       0       0  00:00       0.00
  WetBasin1_SurSt          0.000       0     0     0         0.000       0       0  00:00       0.00
  BedFilter1_St            0.000       0     0     0         0.000       0       0  00:00       0.00
  
  
  ***********************
  Outfall Loading Summary
  ***********************
  
  -----------------------------------------------------------------------------------------------------------------------------------------------
                         Flow       Avg       Max       Total         Total         Total         Total         Total         Total         Total
                         Freq      Flow      Flow      Volume           TSS           FSP            TP           SRP            TN           DIN
  Outfall Node           Pcnt       CFS       CFS    10^6 gal           lbs           lbs           lbs           lbs           lbs           lbs
  -----------------------------------------------------------------------------------------------------------------------------------------------
  Outfall2               0.00      0.00      0.00       0.000         0.000         0.000         0.000         0.000         0.000         0.000
  GW                     0.00      0.00      0.00       0.000         0.000         0.000         0.000         0.000         0.000         0.000
  -----------------------------------------------------------------------------------------------------------------------------------------------
  System                 0.00      0.00      0.00       0.000         0.000         0.000         0.000         0.000         0.000         0.000
  
  
  ********************
  Link Flow Summary
  ********************
  
  -----------------------------------------------------------------------------
                                 Maximum  Time of Max   Maximum    Max/    Max/
                                  |Flow|   Occurrence   |Veloc|    Full    Full
  Link                 Type          CFS  days hr:min    ft/sec    Flow   Depth
  -----------------------------------------------------------------------------
  Outfall2_UsCo        DUMMY        0.00     0  00:00
  Catch1_DsCo          DUMMY        0.00     0  00:00
  Junction1_DsCo       DUMMY        0.00     0  00:00
  DryBasin1_DsCo       DUMMY        0.00     0  00:00
  Divider3_DsCo        DUMMY        0.00     0  00:00
  Divider3_DsCo2       CONDUIT      0.00     0  00:00      0.00    0.00    0.00
  InfiltrationBasin1_DsCo DUMMY        0.00     0  00:00
  WetBasin1_DsCo       DUMMY        0.00     0  00:00
  CartridgeFilter1_DsCo DUMMY        0.00     0  00:00
  BedFilter1_DsCo      DUMMY        0.00     0  00:00
  TreatmentVault1_DsCo DUMMY        0.00     0  00:00
  DryBasin1_OtCo       DUMMY        0.00     0  00:00
  DryBasin1_InCo       DUMMY        0.00     0  00:00
  InfiltrationBasin1_InCo DUMMY        0.00     0  00:00
  WetBasin1_InCo       DUMMY        0.00     0  00:00
  WetBasin1_WetInCo    DUMMY        0.00     0  00:00
  WetBasin1_SurInCo    DUMMY        0.00     0  00:00
  WetBasin1_WetOtCo    DUMMY        0.00     0  00:00
  WetBasin1_SurOtCo    DUMMY        0.00     0  00:00
  BedFilter1_OtCo      DUMMY        0.00     0  00:00
  BedFilter1_InCo      DUMMY        0.00     0  00:00
  CartridgeFilter1_OtCo DUMMY        0.00     0  00:00
  CartridgeFilter1_TrCo DUMMY        0.00     0  00:00
  CartridgeFilter1_ByCo DUMMY        0.00     0  00:00
  CartridgeFilter1_InCo DUMMY        0.00     0  00:00
  TreatmentVault1_OtCo DUMMY        0.00     0  00:00
  TreatmentVault1_TrCo DUMMY        0.00     0  00:00
  TreatmentVault1_ByCo DUMMY        0.00     0  00:00
  TreatmentVault1_InCo DUMMY        0.00     0  00:00
  DryBasin1_ByWe       WEIR         0.00     0  00:00                      0.00
  InfiltrationBasin1_ByWe WEIR         0.00     0  00:00                      0.00
  WetBasin1_WetTrWe    WEIR         0.00     0  00:00                      0.00
  WetBasin1_SurByWe    WEIR         0.00     0  00:00                      0.00
  BedFilter1_ByWe      WEIR         0.00     0  00:00                      0.00
  DryBasin1_TrOl       DUMMY        0.00     0  00:00
  DryBasin1_GwOl       DUMMY        0.00     0  00:00
  InfiltrationBasin1_GwOl DUMMY        0.00     0  00:00
  WetBasin1_SurTrOl    DUMMY        0.00     0  00:00
  BedFilter1_GwOl      DUMMY        0.00     0  00:00
  
  
  *************************
  Conduit Surcharge Summary
  *************************
  
  No conduits were surcharged.
  
  
  ***************************
  Link Pollutant Load Summary
  ***************************
  
  --------------------------------------------------------------------------------------------------------
                                 TSS           FSP            TP           SRP            TN           DIN
  Link                           lbs           lbs           lbs           lbs           lbs           lbs
  --------------------------------------------------------------------------------------------------------
  Outfall2_UsCo                0.000         0.000         0.000         0.000         0.000         0.000
  Catch1_DsCo                  0.000         0.000         0.000         0.000         0.000         0.000
  Junction1_DsCo               0.000         0.000         0.000         0.000         0.000         0.000
  DryBasin1_DsCo               0.000         0.000         0.000         0.000         0.000         0.000
  Divider3_DsCo                0.000         0.000         0.000         0.000         0.000         0.000
  Divider3_DsCo2               0.000         0.000         0.000         0.000         0.000         0.000
  InfiltrationBasin1_DsCo         0.000         0.000         0.000         0.000         0.000         0.000
  WetBasin1_DsCo               0.000         0.000         0.000         0.000         0.000         0.000
  CartridgeFilter1_DsCo         0.000         0.000         0.000         0.000         0.000         0.000
  BedFilter1_DsCo              0.000         0.000         0.000         0.000         0.000         0.000
  TreatmentVault1_DsCo         0.000         0.000         0.000         0.000         0.000         0.000
  DryBasin1_OtCo               0.000         0.000         0.000         0.000         0.000         0.000
  DryBasin1_InCo               0.000         0.000         0.000         0.000         0.000         0.000
  InfiltrationBasin1_InCo         0.000         0.000         0.000         0.000         0.000         0.000
  WetBasin1_InCo               0.000         0.000         0.000         0.000         0.000         0.000
  WetBasin1_WetInCo            0.000         0.000         0.000         0.000         0.000         0.000
  WetBasin1_SurInCo            0.000         0.000         0.000         0.000         0.000         0.000
  WetBasin1_WetOtCo            0.000         0.000         0.000         0.000         0.000         0.000
  WetBasin1_SurOtCo            0.000         0.000         0.000         0.000         0.000         0.000
  BedFilter1_OtCo              0.000         0.000         0.000         0.000         0.000         0.000
  BedFilter1_InCo              0.000         0.000         0.000         0.000         0.000         0.000
  CartridgeFilter1_OtCo         0.000         0.000         0.000         0.000         0.000         0.000
  CartridgeFilter1_TrCo         0.000         0.000         0.000         0.000         0.000         0.000
  CartridgeFilter1_ByCo         0.000         0.000         0.000         0.000         0.000         0.000
  CartridgeFilter1_InCo         0.000         0.000         0.000         0.000         0.000         0.000
  TreatmentVault1_OtCo         0.000         0.000         0.000         0.000         0.000         0.000
  TreatmentVault1_TrCo         0.000         0.000         0.000         0.000         0.000         0.000
  TreatmentVault1_ByCo         0.000         0.000         0.000         0.000         0.000         0.000
  TreatmentVault1_InCo         0.000         0.000         0.000         0.000         0.000         0.000
  DryBasin1_ByWe               0.000         0.000         0.000         0.000         0.000         0.000
  InfiltrationBasin1_ByWe         0.000         0.000         0.000         0.000         0.000         0.000
  WetBasin1_WetTrWe            0.000         0.000         0.000         0.000         0.000         0.000
  WetBasin1_SurByWe            0.000         0.000         0.000         0.000         0.000         0.000
  BedFilter1_ByWe              0.000         0.000         0.000         0.000         0.000         0.000
  DryBasin1_TrOl               0.000         0.000         0.000         0.000         0.000         0.000
  DryBasin1_GwOl               0.000         0.000         0.000         0.000         0.000         0.000
  InfiltrationBasin1_GwOl         0.000         0.000         0.000         0.000         0.000         0.000
  WetBasin1_SurTrOl            0.000         0.000         0.000         0.000         0.000         0.000
  BedFilter1_GwOl              0.000         0.000         0.000         0.000         0.000         0.000
  

  Analysis begun on:  Fri May 09 09:51:17 2014
  Analysis ended on:  Fri May 09 09:52:22 2014
  Total elapsed time: 00:01:05