
  EPA STORM WATER MANAGEMENT MODEL - VERSION 5.1 (Build 5.1.001)
  --------------------------------------------------------------

  Input Files 
  WARNING 04: minimum elevation drop used for Conduit Outfall2_UsCo
  WARNING 05: minimum slope used for Conduit Outfall2_UsCo
  WARNING 04: minimum elevation drop used for Conduit Test2_DsCo
  WARNING 05: minimum slope used for Conduit Test2_DsCo
  WARNING 04: minimum elevation drop used for Conduit Junction1_DsCo
  WARNING 05: minimum slope used for Conduit Junction1_DsCo
  WARNING 04: minimum elevation drop used for Conduit DryBasin1_DsCo
  WARNING 05: minimum slope used for Conduit DryBasin1_DsCo
  WARNING 04: minimum elevation drop used for Conduit Divider3_DsCo
  WARNING 05: minimum slope used for Conduit Divider3_DsCo
  WARNING 04: minimum elevation drop used for Conduit Divider3_DsCo2
  WARNING 05: minimum slope used for Conduit Divider3_DsCo2
  WARNING 04: minimum elevation drop used for Conduit InfiltrationBasin1_DsCo
  WARNING 05: minimum slope used for Conduit InfiltrationBasin1_DsCo
  WARNING 04: minimum elevation drop used for Conduit WetBasin1_DsCo
  WARNING 05: minimum slope used for Conduit WetBasin1_DsCo
  WARNING 04: minimum elevation drop used for Conduit CartridgeFilter1_DsCo
  WARNING 05: minimum slope used for Conduit CartridgeFilter1_DsCo
  WARNING 04: minimum elevation drop used for Conduit BedFilter1_DsCo
  WARNING 05: minimum slope used for Conduit BedFilter1_DsCo
  WARNING 04: minimum elevation drop used for Conduit TreatmentVault1_DsCo
  WARNING 05: minimum slope used for Conduit TreatmentVault1_DsCo
  WARNING 04: minimum elevation drop used for Conduit DryBasin1_OtCo
  WARNING 05: minimum slope used for Conduit DryBasin1_OtCo
  WARNING 04: minimum elevation drop used for Conduit DryBasin1_InCo
  WARNING 05: minimum slope used for Conduit DryBasin1_InCo
  WARNING 04: minimum elevation drop used for Conduit InfiltrationBasin1_InCo
  WARNING 05: minimum slope used for Conduit InfiltrationBasin1_InCo
  WARNING 04: minimum elevation drop used for Conduit WetBasin1_InCo
  WARNING 05: minimum slope used for Conduit WetBasin1_InCo
  WARNING 04: minimum elevation drop used for Conduit WetBasin1_WetInCo
  WARNING 05: minimum slope used for Conduit WetBasin1_WetInCo
  WARNING 04: minimum elevation drop used for Conduit WetBasin1_SurInCo
  WARNING 05: minimum slope used for Conduit WetBasin1_SurInCo
  WARNING 04: minimum elevation drop used for Conduit WetBasin1_WetOtCo
  WARNING 05: minimum slope used for Conduit WetBasin1_WetOtCo
  WARNING 04: minimum elevation drop used for Conduit WetBasin1_SurOtCo
  WARNING 05: minimum slope used for Conduit WetBasin1_SurOtCo
  WARNING 04: minimum elevation drop used for Conduit BedFilter1_OtCo
  WARNING 05: minimum slope used for Conduit BedFilter1_OtCo
  WARNING 04: minimum elevation drop used for Conduit BedFilter1_InCo
  WARNING 05: minimum slope used for Conduit BedFilter1_InCo
  WARNING 04: minimum elevation drop used for Conduit CartridgeFilter1_OtCo
  WARNING 05: minimum slope used for Conduit CartridgeFilter1_OtCo
  WARNING 04: minimum elevation drop used for Conduit CartridgeFilter1_TrCo
  WARNING 05: minimum slope used for Conduit CartridgeFilter1_TrCo
  WARNING 04: minimum elevation drop used for Conduit CartridgeFilter1_ByCo
  WARNING 05: minimum slope used for Conduit CartridgeFilter1_ByCo
  WARNING 04: minimum elevation drop used for Conduit CartridgeFilter1_InCo
  WARNING 05: minimum slope used for Conduit CartridgeFilter1_InCo
  WARNING 04: minimum elevation drop used for Conduit TreatmentVault1_OtCo
  WARNING 05: minimum slope used for Conduit TreatmentVault1_OtCo
  WARNING 04: minimum elevation drop used for Conduit TreatmentVault1_TrCo
  WARNING 05: minimum slope used for Conduit TreatmentVault1_TrCo
  WARNING 04: minimum elevation drop used for Conduit TreatmentVault1_ByCo
  WARNING 05: minimum slope used for Conduit TreatmentVault1_ByCo
  WARNING 04: minimum elevation drop used for Conduit TreatmentVault1_InCo
  WARNING 05: minimum slope used for Conduit TreatmentVault1_InCo
  
  *********************************************************
  NOTE: The summary statistics displayed in this report are
  based on results found at every computational time step,  
  not just on results from each reporting time step.
  *********************************************************
  
  ****************
  Analysis Options
  ****************
  Flow Units ............... CFS
  Process Models:
    Rainfall/Runoff ........ YES
    Snowmelt ............... YES
    Groundwater ............ YES
    Flow Routing ........... YES
    Ponding Allowed ........ NO
    Water Quality .......... YES
  Infiltration Method ...... GREEN_AMPT
  Flow Routing Method ...... KINWAVE
  Starting Date ............ OCT-01-1990 00:00:00
  Ending Date .............. OCT-01-1996 00:00:00
  Antecedent Dry Days ...... 0.0
  Report Time Step ......... 00:15:00
  Wet Time Step ............ 00:15:00
  Dry Time Step ............ 04:00:00
  Routing Time Step ........ 30.00 sec
  
  
  *********************
  Rainfall File Summary
  *********************
  Station    First        Last         Recording   Periods    Periods    Periods
  ID         Date         Date         Frequency  w/Precip    Missing    Malfunc.
  -------------------------------------------------------------------------------
  1          NOV-02-1988  NOV-14-2006     60 min     13389          0          0

  
  **************************        Volume         Depth
  Runoff Quantity Continuity     acre-feet        inches
  **************************     ---------       -------
  Initial Snow Cover .......         0.000         0.000
  Total Precipitation ......       126.577       379.730
  Evaporation Loss .........        32.773        98.320
  Infiltration Loss ........         0.000         0.000
  Surface Runoff ...........        81.918       245.754
  Snow Removed .............         0.000         0.000
  Final Snow Cover .........        12.321        36.963
  Final Surface Storage ....         0.007         0.021
  Continuity Error (%) .....        -0.350
  
  
  **************************           TSS           FSP            TP           SRP            TN
  Runoff Quality Continuity            lbs           lbs           lbs           lbs           lbs
  **************************    ----------    ----------    ----------    ----------    ----------
  Initial Buildup ..........         0.000         0.000         0.000         0.000         0.000
  Surface Buildup ..........    272724.329    200492.455       418.617        33.186      1062.091
  Wet Deposition ...........         0.000         0.000         0.000         0.000         0.000
  Sweeping Removal .........         0.000         0.000         0.000         0.000         0.000
  Infiltration Loss ........         0.000         0.000         0.000         0.000         0.000
  BMP Removal ..............         0.000         0.000         0.000         0.000         0.000
  Surface Runoff ...........    272724.329    200492.455       418.617        33.186      1062.091
  Remaining Buildup ........         0.000         0.000         0.000         0.000         0.000
  Continuity Error (%) .....         0.000         0.000         0.000         0.000         0.000
  
  
  **************************           DIN
  Runoff Quality Continuity            lbs
  **************************    ----------
  Initial Buildup ..........         0.000
  Surface Buildup ..........       136.704
  Wet Deposition ...........         0.000
  Sweeping Removal .........         0.000
  Infiltration Loss ........         0.000
  BMP Removal ..............         0.000
  Surface Runoff ...........       136.704
  Remaining Buildup ........         0.000
  Continuity Error (%) .....         0.000
  
  
  **************************        Volume         Depth
  Groundwater Continuity         acre-feet        inches
  **************************     ---------       -------
  Initial Storage ..........      1837.720      5513.160
  Infiltration .............         0.000         0.000
  Upper Zone ET ............         0.000         0.000
  Lower Zone ET ............         0.000         0.000
  Deep Percolation .........         0.000         0.000
  Groundwater Flow .........         0.000         0.000
  Final Storage ............      1837.720      5513.160
  Continuity Error (%) .....         0.000
  
  
  **************************        Volume        Volume
  Flow Routing Continuity        acre-feet      10^6 gal
  **************************     ---------     ---------
  Dry Weather Inflow .......         0.000         0.000
  Wet Weather Inflow .......        81.918        26.694
  Groundwater Inflow .......         0.000         0.000
  RDII Inflow ..............         0.000         0.000
  External Inflow ..........         0.000         0.000
  External Outflow .........        81.805        26.657
  Internal Outflow .........         0.000         0.000
  Evaporation Loss .........         0.000         0.000
  Seepage Loss .............         0.000         0.000
  Initial Stored Volume ....         0.000         0.000
  Final Stored Volume ......         0.115         0.037
  Continuity Error (%) .....        -0.002
  
  
  **************************           TSS           FSP            TP           SRP            TN
  Quality Routing Continuity           lbs           lbs           lbs           lbs           lbs
  **************************    ----------    ----------    ----------    ----------    ----------
  Dry Weather Inflow .......         0.000         0.000         0.000         0.000         0.000
  Wet Weather Inflow .......    272724.329    200492.455       418.617        33.186      1062.091
  Groundwater Inflow .......         0.000         0.000         0.000         0.000         0.000
  RDII Inflow ..............         0.000         0.000         0.000         0.000         0.000
  External Inflow ..........         0.000         0.000         0.000         0.000         0.000
  Internal Flooding ........         0.000         0.000         0.000         0.000         0.000
  External Outflow .........     75771.824     57563.197       134.587        21.609       490.319
  Mass Reacted .............    196146.177    142334.714       282.834        11.487       568.931
  Initial Stored Mass ......         0.000         0.000         0.000         0.000         0.000
  Final Stored Mass ........       287.883       212.159         0.451         0.039         1.199
  Continuity Error (%) .....         0.190         0.191         0.178         0.154         0.155
  
  
  **************************           DIN
  Quality Routing Continuity           lbs
  **************************    ----------
  Dry Weather Inflow .......         0.000
  Wet Weather Inflow .......       136.704
  Groundwater Inflow .......         0.000
  RDII Inflow ..............         0.000
  External Inflow ..........         0.000
  Internal Flooding ........         0.000
  External Outflow .........        74.244
  Mass Reacted .............        62.083
  Initial Stored Mass ......         0.000
  Final Stored Mass ........         0.153
  Continuity Error (%) .....         0.165
  
  
  ********************************
  Highest Flow Instability Indexes
  ********************************
  All links are stable.
  
  
  *************************
  Routing Time Step Summary
  *************************
  Minimum Time Step           :    30.00 sec
  Average Time Step           :    30.00 sec
  Maximum Time Step           :    30.00 sec
  Percent in Steady State     :     0.00
  Average Iterations per Step :     1.00
  Percent Not Converging      :     0.00
  
  
  ***************************
  Subcatchment Runoff Summary
  ***************************
  
  --------------------------------------------------------------------------------------------------------
                            Total      Total      Total      Total      Total       Total     Peak  Runoff
                           Precip      Runon       Evap      Infil     Runoff      Runoff   Runoff   Coeff
  Subcatchment                 in         in         in         in         in    10^6 gal      CFS
  --------------------------------------------------------------------------------------------------------
  Test2_PrrToOutCa         379.73       0.00      98.45       0.00     245.56       24.00     7.12   0.647
  Test2_SerToOutCa         379.73       0.00      97.15       0.00     247.46        2.69     0.79   0.652
  
  
  ****************************
  Subcatchment Washoff Summary
  ****************************
  
  --------------------------------------------------------------------------------------------------------
                                 TSS           FSP            TP           SRP            TN           DIN
  Subcatchment                   lbs           lbs           lbs           lbs           lbs           lbs
  --------------------------------------------------------------------------------------------------------
  Test2_PrrToOutCa        257386.256    189827.352       390.668        30.727       972.880       125.301
  Test2_SerToOutCa         15338.073     10665.103        27.948         2.459        89.211        11.403
  --------------------------------------------------------------------------------------------------------
  System                  272724.329    200492.455       418.617        33.186      1062.091       136.704
  
  
  ******************
  Node Depth Summary
  ******************
  
  ---------------------------------------------------------------------
                                 Average  Maximum  Maximum  Time of Max
                                   Depth    Depth      HGL   Occurrence
  Node                 Type         Feet     Feet     Feet  days hr:min
  ---------------------------------------------------------------------
  Outfall2_UsJu        JUNCTION     0.00     0.00     0.00     0  00:00
  Test2_Ju             JUNCTION     0.00     0.00     0.00     0  00:00
  Junction1            JUNCTION     0.00     0.00     0.00     0  00:00
  DryBasin1_InJu       JUNCTION     0.00     0.00     0.00     0  00:00
  DryBasin1_TrJu       JUNCTION     0.00     0.00     0.00     0  00:00
  DryBasin1_OuJu       JUNCTION     0.00     0.00     0.00     0  00:00
  InfiltrationBasin1_InJu JUNCTION     0.00     0.00     0.00     0  00:00
  InfiltrationBasin1_OuJu JUNCTION     0.00     0.00     0.00     0  00:00
  WetBasin1_InJu       JUNCTION     0.00     0.00     0.00     0  00:00
  WetBasin1_OuJu       JUNCTION     0.00     0.00     0.00     0  00:00
  WetBasin1_WetTrJu    JUNCTION     0.00     0.00     0.00     0  00:00
  WetBasin1_SurTrJu    JUNCTION     0.00     0.00     0.00     0  00:00
  BedFilter1_InJu      JUNCTION     0.00     0.00     0.00     0  00:00
  BedFilter1_TrJu      JUNCTION     0.00     0.00     0.00     0  00:00
  BedFilter1_OuJu      JUNCTION     0.00     0.00     0.00     0  00:00
  CartridgeFilter1_InJu JUNCTION     0.00     0.00     0.00     0  00:00
  CartridgeFilter1_TrJu JUNCTION     0.00     0.00     0.00     0  00:00
  CartridgeFilter1_OuJu JUNCTION     0.00     0.00     0.00     0  00:00
  TreatmentVault1_InJu JUNCTION     0.00     0.00     0.00     0  00:00
  TreatmentVault1_TrJu JUNCTION     0.00     0.00     0.00     0  00:00
  TreatmentVault1_OuJu JUNCTION     0.00     0.00     0.00     0  00:00
  Outfall2             OUTFALL      0.00     0.00     0.00     0  00:00
  GW                   OUTFALL      0.00     0.00     0.00     0  00:00
  Divider3             DIVIDER      0.00     0.00     0.00     0  00:00
  WetBasin1_Di         DIVIDER      0.00     0.00     0.00     0  00:00
  CartridgeFilter1_Di  DIVIDER      0.00     0.00     0.00     0  00:00
  TreatmentVault1_Di   DIVIDER      0.00     0.00     0.00     0  00:00
  DryBasin1_St         STORAGE      0.97     3.33     3.33   154  13:00
  InfiltrationBasin1_St STORAGE      1.23     3.33     3.33   154  13:00
  WetBasin1_WetSt      STORAGE      0.00     0.00     0.00     0  00:00
  WetBasin1_SurSt      STORAGE      0.00     0.00     0.00     0  00:00
  BedFilter1_St        STORAGE      0.00     0.00     0.00     0  00:00
  
  
  *******************
  Node Inflow Summary
  *******************
  
  -------------------------------------------------------------------------------------------------
                                  Maximum  Maximum                  Lateral       Total        Flow
                                  Lateral    Total  Time of Max      Inflow      Inflow     Balance
                                   Inflow   Inflow   Occurrence      Volume      Volume       Error
  Node                 Type           CFS      CFS  days hr:min    10^6 gal    10^6 gal     Percent
  -------------------------------------------------------------------------------------------------
  Outfall2_UsJu        JUNCTION      0.00     7.90   154  13:00           0          15       0.000
  Test2_Ju             JUNCTION      7.91     7.91   154  13:00        26.7        26.7       0.000
  Junction1            JUNCTION      0.00     7.91   154  13:00           0        26.7       0.000
  DryBasin1_InJu       JUNCTION      0.00     7.91   154  13:00           0        26.7       0.000
  DryBasin1_TrJu       JUNCTION      0.00     0.01    17  17:43           0        8.54       0.000
  DryBasin1_OuJu       JUNCTION      0.00     7.90   154  13:00           0        23.3       0.000
  InfiltrationBasin1_InJu JUNCTION      0.00     7.90   154  13:00           0        23.3       0.000
  InfiltrationBasin1_OuJu JUNCTION      0.00     7.90   154  13:00           0          15       0.000
  WetBasin1_InJu       JUNCTION      0.00     0.00     0  00:00           0           0       0.000gal
  WetBasin1_OuJu       JUNCTION      0.00     0.00     0  00:00           0           0       0.000gal
  WetBasin1_WetTrJu    JUNCTION      0.00     0.00     0  00:00           0           0       0.000gal
  WetBasin1_SurTrJu    JUNCTION      0.00     0.00     0  00:00           0           0       0.000gal
  BedFilter1_InJu      JUNCTION      0.00     0.00     0  00:00           0           0       0.000gal
  BedFilter1_TrJu      JUNCTION      0.00     0.00     0  00:00           0           0       0.000gal
  BedFilter1_OuJu      JUNCTION      0.00     0.00     0  00:00           0           0       0.000gal
  CartridgeFilter1_InJu JUNCTION      0.00     7.90   154  13:00           0          15       0.000
  CartridgeFilter1_TrJu JUNCTION      0.00     0.00     0  00:00           0           0       0.000gal
  CartridgeFilter1_OuJu JUNCTION      0.00     7.90   154  13:00           0          15       0.000
  TreatmentVault1_InJu JUNCTION      0.00     7.90   154  13:00           0          15       0.000
  TreatmentVault1_TrJu JUNCTION      0.00     7.90   154  13:00           0          15       0.000
  TreatmentVault1_OuJu JUNCTION      0.00     7.90   154  13:00           0          15       0.000
  Outfall2             OUTFALL       0.00     7.90   154  13:00           0          15       0.000
  GW                   OUTFALL       0.00     0.01    17  17:55           0        11.7       0.000
  Divider3             DIVIDER       0.00     7.90   154  13:00           0        23.3       0.000
  WetBasin1_Di         DIVIDER       0.00     0.00     0  00:00           0           0       0.000gal
  CartridgeFilter1_Di  DIVIDER       0.00     7.90   154  13:00           0          15       0.000
  TreatmentVault1_Di   DIVIDER       0.00     7.90   154  13:00           0          15       0.000
  DryBasin1_St         STORAGE       0.00     7.91   154  13:00           0        26.7      -0.017
  InfiltrationBasin1_St STORAGE       0.00     7.90   154  13:00           0        23.3       0.017
  WetBasin1_WetSt      STORAGE       0.00     0.00     0  00:00           0           0       0.000gal
  WetBasin1_SurSt      STORAGE       0.00     0.00     0  00:00           0           0       0.000gal
  BedFilter1_St        STORAGE       0.00     0.00     0  00:00           0           0       0.000gal
  
  
  **********************
  Node Surcharge Summary
  **********************
  
  Surcharging occurs when water rises above the top of the highest conduit.
  ---------------------------------------------------------------------
                                               Max. Height   Min. Depth
                                   Hours       Above Crown    Below Rim
  Node                 Type      Surcharged           Feet         Feet
  ---------------------------------------------------------------------
  Outfall2_UsJu        JUNCTION    52608.01          0.000        4.000
  Test2_Ju             JUNCTION    52608.01          0.000        4.000
  Junction1            JUNCTION    52608.01          0.000        4.000
  DryBasin1_InJu       JUNCTION    52608.01          0.000        4.000
  DryBasin1_TrJu       JUNCTION    52608.01          0.000        4.000
  InfiltrationBasin1_InJu JUNCTION    52608.01          0.000        4.000
  WetBasin1_InJu       JUNCTION    52608.01          0.000        4.000
  WetBasin1_SurTrJu    JUNCTION    52608.01          0.000        4.000
  BedFilter1_InJu      JUNCTION    52608.01          0.000        4.000
  BedFilter1_TrJu      JUNCTION    52608.01          0.000        4.000
  CartridgeFilter1_InJu JUNCTION    52608.01          0.000        4.000
  CartridgeFilter1_TrJu JUNCTION    52608.01          0.000        4.000
  CartridgeFilter1_OuJu JUNCTION    52608.01          0.000        4.000
  TreatmentVault1_InJu JUNCTION    52608.01          0.000        4.000
  TreatmentVault1_TrJu JUNCTION    52608.01          0.000        4.000
  TreatmentVault1_OuJu JUNCTION    52608.01          0.000        4.000
  Divider3             DIVIDER     52608.01          0.000        4.000
  WetBasin1_Di         DIVIDER     52608.01          0.000        4.000
  CartridgeFilter1_Di  DIVIDER     52608.01          0.000        4.000
  TreatmentVault1_Di   DIVIDER     52608.01          0.000        4.000
  
  
  *********************
  Node Flooding Summary
  *********************
  
  No nodes were flooded.
  
  
  **********************
  Storage Volume Summary
  **********************
  
  --------------------------------------------------------------------------------------------------
                         Average     Avg  Evap Infil       Maximum     Max    Time of Max    Maximum
                          Volume    Pcnt  Pcnt  Pcnt        Volume    Pcnt     Occurrence    Outflow
  Storage Unit          1000 ft3    Full  Loss  Loss      1000 ft3    Full    days hr:min        CFS
  --------------------------------------------------------------------------------------------------
  DryBasin1_St             0.919       7     0     0         3.332      27     154  13:00       7.91
  InfiltrationBasin1_St     1.187       9     0     0         3.332      27     154  12:31       7.90
  WetBasin1_WetSt          0.000       0     0     0         0.000       0       0  00:00       0.00
  WetBasin1_SurSt          0.000       0     0     0         0.000       0       0  00:00       0.00
  BedFilter1_St            0.000       0     0     0         0.000       0       0  00:00       0.00
  
  
  ***********************
  Outfall Loading Summary
  ***********************
  
  -----------------------------------------------------------------------------------------------------------------------------------------------
                         Flow       Avg       Max       Total         Total         Total         Total         Total         Total         Total
                         Freq      Flow      Flow      Volume           TSS           FSP            TP           SRP            TN           DIN
  Outfall Node           Pcnt       CFS       CFS    10^6 gal           lbs           lbs           lbs           lbs           lbs           lbs
  -----------------------------------------------------------------------------------------------------------------------------------------------
  Outfall2              36.32      0.03      7.90      14.999      6000.446      6000.207        22.503        11.195       177.490        34.863
  GW                    62.92      0.01      0.01      11.657     69771.389     51562.998       112.084        10.415       312.829        39.381
  -----------------------------------------------------------------------------------------------------------------------------------------------
  System                49.62      0.04      7.91      26.655     75771.835     57563.205       134.587        21.609       490.319        74.244
  
  
  ********************
  Link Flow Summary
  ********************
  
  -----------------------------------------------------------------------------
                                 Maximum  Time of Max   Maximum    Max/    Max/
                                  |Flow|   Occurrence   |Veloc|    Full    Full
  Link                 Type          CFS  days hr:min    ft/sec    Flow   Depth
  -----------------------------------------------------------------------------
  Outfall2_UsCo        DUMMY        7.90   154  13:00
  Test2_DsCo           DUMMY        7.91   154  13:00
  Junction1_DsCo       DUMMY        7.91   154  13:00
  DryBasin1_DsCo       DUMMY        7.90   154  13:00
  Divider3_DsCo        DUMMY        7.90   154  13:00
  Divider3_DsCo2       DUMMY        0.00     0  00:00
  InfiltrationBasin1_DsCo DUMMY        7.90   154  13:00
  WetBasin1_DsCo       DUMMY        0.00     0  00:00
  CartridgeFilter1_DsCo DUMMY        7.90   154  13:00
  BedFilter1_DsCo      DUMMY        0.00     0  00:00
  TreatmentVault1_DsCo DUMMY        7.90   154  13:00
  DryBasin1_OtCo       DUMMY        0.01    17  17:43
  DryBasin1_InCo       DUMMY        7.91   154  13:00
  InfiltrationBasin1_InCo DUMMY        7.90   154  13:00
  WetBasin1_InCo       DUMMY        0.00     0  00:00
  WetBasin1_WetInCo    DUMMY        0.00     0  00:00
  WetBasin1_SurInCo    DUMMY        0.00     0  00:00
  WetBasin1_WetOtCo    DUMMY        0.00     0  00:00
  WetBasin1_SurOtCo    DUMMY        0.00     0  00:00
  BedFilter1_OtCo      DUMMY        0.00     0  00:00
  BedFilter1_InCo      DUMMY        0.00     0  00:00
  CartridgeFilter1_OtCo DUMMY        0.00     0  00:00
  CartridgeFilter1_TrCo DUMMY        0.00     0  00:00
  CartridgeFilter1_ByCo DUMMY        7.90   154  13:00
  CartridgeFilter1_InCo DUMMY        7.90   154  13:00
  TreatmentVault1_OtCo DUMMY        7.90   154  13:00
  TreatmentVault1_TrCo DUMMY        7.90   154  13:00
  TreatmentVault1_ByCo DUMMY        0.00     0  00:00
  TreatmentVault1_InCo DUMMY        7.90   154  13:00
  DryBasin1_ByWe       WEIR         7.89   154  13:00                      0.00
  InfiltrationBasin1_ByWe WEIR         7.90   154  13:00                      0.00
  WetBasin1_WetTrWe    WEIR         0.00     0  00:00                      0.00
  WetBasin1_SurByWe    WEIR         0.00     0  00:00                      0.00
  BedFilter1_ByWe      WEIR         0.00     0  00:00                      0.00
  DryBasin1_TrOl       DUMMY        0.01    17  17:43
  DryBasin1_GwOl       DUMMY        0.00    17  17:43
  InfiltrationBasin1_GwOl DUMMY        0.01    17  17:55
  WetBasin1_SurTrOl    DUMMY        0.00     0  00:00
  BedFilter1_GwOl      DUMMY        0.00     0  00:00
  
  
  *************************
  Conduit Surcharge Summary
  *************************
  
  No conduits were surcharged.
  
  
  ***************************
  Link Pollutant Load Summary
  ***************************
  
  --------------------------------------------------------------------------------------------------------
                                 TSS           FSP            TP           SRP            TN           DIN
  Link                           lbs           lbs           lbs           lbs           lbs           lbs
  --------------------------------------------------------------------------------------------------------
  Outfall2_UsCo             6000.446      6000.207        22.503        11.195       177.490        34.863
  Test2_DsCo              2.727e+005    2.005e+005       418.599        33.185      1062.072       136.702
  Junction1_DsCo          2.727e+005    2.005e+005       418.576        33.184      1062.037       136.697
  DryBasin1_DsCo          1.526e+005    1.126e+005       242.870        21.910       665.668        84.144
  Divider3_DsCo           1.526e+005    1.126e+005       242.854        21.909       665.633        84.139
  Divider3_DsCo2               0.000         0.000         0.000         0.000         0.000         0.000
  InfiltrationBasin1_DsCo    1.172e+005    8.633e+004       183.519        15.677       486.644        61.985
  WetBasin1_DsCo               0.000         0.000         0.000         0.000         0.000         0.000
  CartridgeFilter1_DsCo    1.170e+005    8.621e+004       183.289        15.663       486.148        61.918
  BedFilter1_DsCo              0.000         0.000         0.000         0.000         0.000         0.000
  TreatmentVault1_DsCo      6001.339      6001.101        22.507        11.197       177.517        34.869
  DryBasin1_OtCo            1779.312      1779.309        11.387         3.558        78.283         8.540
  DryBasin1_InCo          2.727e+005    2.004e+005       418.546        33.182      1061.986       136.690
  InfiltrationBasin1_InCo    1.525e+005    1.126e+005       242.825        21.907       665.569        84.130
  WetBasin1_InCo               0.000         0.000         0.000         0.000         0.000         0.000
  WetBasin1_WetInCo            0.000         0.000         0.000         0.000         0.000         0.000
  WetBasin1_SurInCo            0.000         0.000         0.000         0.000         0.000         0.000
  WetBasin1_WetOtCo            0.000         0.000         0.000         0.000         0.000         0.000
  WetBasin1_SurOtCo            0.000         0.000         0.000         0.000         0.000         0.000
  BedFilter1_OtCo              0.000         0.000         0.000         0.000         0.000         0.000
  BedFilter1_InCo              0.000         0.000         0.000         0.000         0.000         0.000
  CartridgeFilter1_OtCo         0.000         0.000         0.000         0.000         0.000         0.000
  CartridgeFilter1_TrCo         0.000         0.000         0.000         0.000         0.000         0.000
  CartridgeFilter1_ByCo    1.171e+005    8.625e+004       183.368        15.668       486.321        61.941
  CartridgeFilter1_InCo    1.171e+005    8.629e+004       183.445        15.672       486.485        61.963
  TreatmentVault1_OtCo      6002.077      6001.840        22.509        11.198       177.539        34.874
  TreatmentVault1_TrCo    1.169e+005    8.612e+004       183.115        15.653       485.767        61.867
  TreatmentVault1_ByCo         0.000         0.000         0.000         0.000         0.000         0.000
  TreatmentVault1_InCo    1.169e+005    8.617e+004       183.204        15.658       485.964        61.894
  DryBasin1_ByWe          1.508e+005    1.109e+005       231.489        18.353       587.400        75.605
  InfiltrationBasin1_ByWe    1.172e+005    8.636e+004       183.591        15.681       486.799        62.006
  WetBasin1_WetTrWe            0.000         0.000         0.000         0.000         0.000         0.000
  WetBasin1_SurByWe            0.000         0.000         0.000         0.000         0.000         0.000
  BedFilter1_ByWe              0.000         0.000         0.000         0.000         0.000         0.000
  DryBasin1_TrOl          8.705e+004    6.400e+004       133.618        10.593       339.005        43.634
  DryBasin1_GwOl          3.462e+004    2.545e+004        53.140         4.213       134.824        17.354
  InfiltrationBasin1_GwOl    3.515e+004    2.611e+004        58.944         6.202       178.005        22.027
  WetBasin1_SurTrOl            0.000         0.000         0.000         0.000         0.000         0.000
  BedFilter1_GwOl              0.000         0.000         0.000         0.000         0.000         0.000
  

  Analysis begun on:  Fri May 09 16:32:08 2014
  Analysis ended on:  Fri May 09 16:33:12 2014
  Total elapsed time: 00:01:04