
  EPA STORM WATER MANAGEMENT MODEL - VERSION 5.1 (Build 5.1.006)
  --------------------------------------------------------------

  Input Files 
  WARNING 04: minimum elevation drop used for Conduit Outfall1_UsCo
  WARNING 05: minimum slope used for Conduit Outfall1_UsCo
  WARNING 04: minimum elevation drop used for Conduit Catch1_DsCo
  WARNING 05: minimum slope used for Conduit Catch1_DsCo
  WARNING 04: minimum elevation drop used for Conduit WetBasin1_DsCo
  WARNING 05: minimum slope used for Conduit WetBasin1_DsCo
  WARNING 04: minimum elevation drop used for Conduit WetBasin1_InCo
  WARNING 05: minimum slope used for Conduit WetBasin1_InCo
  WARNING 04: minimum elevation drop used for Conduit WetBasin1_WetInCo
  WARNING 05: minimum slope used for Conduit WetBasin1_WetInCo
  WARNING 04: minimum elevation drop used for Conduit WetBasin1_SurInCo
  WARNING 05: minimum slope used for Conduit WetBasin1_SurInCo
  WARNING 04: minimum elevation drop used for Conduit WetBasin1_WetOtCo
  WARNING 05: minimum slope used for Conduit WetBasin1_WetOtCo
  WARNING 04: minimum elevation drop used for Conduit WetBasin1_SurOtCo
  WARNING 05: minimum slope used for Conduit WetBasin1_SurOtCo
  
  *********************************************************
  NOTE: The summary statistics displayed in this report are
  based on results found at every computational time step,  
  not just on results from each reporting time step.
  *********************************************************
  
  ****************
  Analysis Options
  ****************
  Flow Units ............... CFS
  Process Models:
    Rainfall/Runoff ........ YES
    RDII ................... NO
    Snowmelt ............... YES
    Groundwater ............ YES
    Flow Routing ........... YES
    Ponding Allowed ........ NO
    Water Quality .......... YES
  Infiltration Method ...... GREEN_AMPT
  Flow Routing Method ...... KINWAVE
  Starting Date ............ OCT-01-2004 00:00:00
  Ending Date .............. OCT-01-2006 00:00:00
  Antecedent Dry Days ...... 0.0
  Report Time Step ......... 00:15:00
  Wet Time Step ............ 00:15:00
  Dry Time Step ............ 04:00:00
  Routing Time Step ........ 30.00 sec
  
  
  *********************
  Rainfall File Summary
  *********************
  Station    First        Last         Recording   Periods    Periods    Periods
  ID         Date         Date         Frequency  w/Precip    Missing    Malfunc.
  -------------------------------------------------------------------------------
  204        NOV-03-1988  NOV-14-2006     60 min     10996          0          0

  
  **************************        Volume         Depth
  Runoff Quantity Continuity     acre-feet        inches
  **************************     ---------       -------
  Initial Snow Cover .......         0.000         0.000
  Total Precipitation ......        33.157        99.470
  Evaporation Loss .........         4.508        13.524
  Infiltration Loss ........        13.321        39.964
  Surface Runoff ...........        15.471        46.412
  Snow Removed .............         0.000         0.000
  Final Snow Cover .........         0.000         0.000
  Final Surface Storage ....         0.000         0.000
  Continuity Error (%) .....        -0.433
  
  
  **************************           TSS           FSP            TP           SRP            TN
  Runoff Quality Continuity            lbs           lbs           lbs           lbs           lbs
  **************************    ----------    ----------    ----------    ----------    ----------
  Initial Buildup ..........         0.000         0.000         0.000         0.000         0.000
  Surface Buildup ..........     28410.294     19754.680        51.768         4.556       165.244
  Wet Deposition ...........         0.000         0.000         0.000         0.000         0.000
  Sweeping Removal .........         0.000         0.000         0.000         0.000         0.000
  Infiltration Loss ........         0.000         0.000         0.000         0.000         0.000
  BMP Removal ..............         0.000         0.000         0.000         0.000         0.000
  Surface Runoff ...........     28410.294     19754.680        51.768         4.556       165.244
  Remaining Buildup ........         0.000         0.000         0.000         0.000         0.000
  Continuity Error (%) .....         0.000         0.000         0.000         0.000         0.000
  
  
  **************************           DIN
  Runoff Quality Continuity            lbs
  **************************    ----------
  Initial Buildup ..........         0.000
  Surface Buildup ..........        21.121
  Wet Deposition ...........         0.000
  Sweeping Removal .........         0.000
  Infiltration Loss ........         0.000
  BMP Removal ..............         0.000
  Surface Runoff ...........        21.121
  Remaining Buildup ........         0.000
  Continuity Error (%) .....         0.000
  
  
  **************************        Volume         Depth
  Groundwater Continuity         acre-feet        inches
  **************************     ---------       -------
  Initial Storage ..........      1837.720      5513.160
  Infiltration .............        13.321        39.964
  Upper Zone ET ............         0.940         2.820
  Lower Zone ET ............         0.000         0.000
  Deep Percolation .........         0.000         0.000
  Groundwater Flow .........         0.000         0.000
  Final Storage ............      1850.101      5550.304
  Continuity Error (%) .....         0.000
  
  
  **************************        Volume        Volume
  Flow Routing Continuity        acre-feet      10^6 gal
  **************************     ---------     ---------
  Dry Weather Inflow .......         0.000         0.000
  Wet Weather Inflow .......        15.471         5.041
  Groundwater Inflow .......         0.000         0.000
  RDII Inflow ..............         0.000         0.000
  External Inflow ..........         0.000         0.000
  External Outflow .........        15.337         4.998
  Internal Outflow .........         0.000         0.000
  Evaporation Loss .........         0.099         0.032
  Seepage Loss .............         0.000         0.000
  Initial Stored Volume ....         0.000         0.000
  Final Stored Volume ......         0.033         0.011
  Continuity Error (%) .....         0.004
  
  
  **************************           TSS           FSP            TP           SRP            TN
  Quality Routing Continuity           lbs           lbs           lbs           lbs           lbs
  **************************    ----------    ----------    ----------    ----------    ----------
  Dry Weather Inflow .......         0.000         0.000         0.000         0.000         0.000
  Wet Weather Inflow .......     28410.294     19754.680        51.768         4.556       165.244
  Groundwater Inflow .......         0.000         0.000         0.000         0.000         0.000
  RDII Inflow ..............         0.000         0.000         0.000         0.000         0.000
  External Inflow ..........         0.000         0.000         0.000         0.000         0.000
  Internal Flooding ........         0.000         0.000         0.000         0.000         0.000
  External Outflow .........     13052.638      9219.890        27.336         3.325       101.267
  Mass Reacted .............     15236.635     10450.607        24.211         1.211        63.272
  Initial Stored Mass ......         0.000         0.000         0.000         0.000         0.000
  Final Stored Mass ........       118.251        82.224         0.215         0.019         0.688
  Continuity Error (%) .....         0.010         0.010         0.011         0.013         0.011
  
  
  **************************           DIN
  Quality Routing Continuity           lbs
  **************************    ----------
  Dry Weather Inflow .......         0.000
  Wet Weather Inflow .......        21.121
  Groundwater Inflow .......         0.000
  RDII Inflow ..............         0.000
  External Inflow ..........         0.000
  Internal Flooding ........         0.000
  External Outflow .........        15.947
  Mass Reacted .............         5.082
  Initial Stored Mass ......         0.000
  Final Stored Mass ........         0.088
  Continuity Error (%) .....         0.019
  
  
  ********************************
  Highest Flow Instability Indexes
  ********************************
  All links are stable.
  
  
  *************************
  Routing Time Step Summary
  *************************
  Minimum Time Step           :    30.00 sec
  Average Time Step           :    30.00 sec
  Maximum Time Step           :    30.00 sec
  Percent in Steady State     :     0.00
  Average Iterations per Step :     1.00
  Percent Not Converging      :     0.00
  
  
  ***************************
  Subcatchment Runoff Summary
  ***************************
  
  --------------------------------------------------------------------------------------------------------
                            Total      Total      Total      Total      Total       Total     Peak  Runoff
                           Precip      Runon       Evap      Infil     Runoff      Runoff   Runoff   Coeff
  Subcatchment                 in         in         in         in         in    10^6 gal      CFS
  --------------------------------------------------------------------------------------------------------
  Catch1_SerToOutCa         99.47       0.00      13.52      39.96      46.41        5.04     2.01   0.467
  
  
  ****************************
  Subcatchment Washoff Summary
  ****************************
  
  --------------------------------------------------------------------------------------------------------
                                 TSS           FSP            TP           SRP            TN           DIN
  Subcatchment                   lbs           lbs           lbs           lbs           lbs           lbs
  --------------------------------------------------------------------------------------------------------
  Catch1_SerToOutCa        28410.294     19754.680        51.768         4.556       165.244        21.121
  --------------------------------------------------------------------------------------------------------
  System                   28410.294     19754.680        51.768         4.556       165.244        21.121
  
  
  ******************
  Node Depth Summary
  ******************
  
  ---------------------------------------------------------------------
                                 Average  Maximum  Maximum  Time of Max
                                   Depth    Depth      HGL   Occurrence
  Node                 Type         Feet     Feet     Feet  days hr:min
  ---------------------------------------------------------------------
  Outfall1_UsJu        JUNCTION     0.00     0.00     0.00     0  00:00
  Catch1_Ju            JUNCTION     0.00     0.00     0.00     0  00:00
  WetBasin1_InJu       JUNCTION     0.00     0.00     0.00     0  00:00
  WetBasin1_OuJu       JUNCTION     0.00     0.00     0.00     0  00:00
  WetBasin1_WetTrJu    JUNCTION     0.00     0.00     0.00     0  00:00
  WetBasin1_SurTrJu    JUNCTION     0.00     0.00     0.00     0  00:00
  Outfall1             OUTFALL      0.00     0.00     0.00     0  00:00
  GW                   OUTFALL      0.00     0.00     0.00     0  00:00
  WetBasin1_Di         DIVIDER      0.00     0.00     0.00     0  00:00
  WetBasin1_WetSt      STORAGE      2.36     2.59     2.59   426  11:33
  WetBasin1_SurSt      STORAGE      0.19     2.48     2.48   446  20:00
  
  
  *******************
  Node Inflow Summary
  *******************
  
  -------------------------------------------------------------------------------------------------
                                  Maximum  Maximum                  Lateral       Total        Flow
                                  Lateral    Total  Time of Max      Inflow      Inflow     Balance
                                   Inflow   Inflow   Occurrence      Volume      Volume       Error
  Node                 Type           CFS      CFS  days hr:min    10^6 gal    10^6 gal     Percent
  -------------------------------------------------------------------------------------------------
  Outfall1_UsJu        JUNCTION      0.00     2.01   446  20:00           0           5       0.000
  Catch1_Ju            JUNCTION      2.01     2.01   446  20:00        5.04        5.04       0.000
  WetBasin1_InJu       JUNCTION      0.00     2.01   446  20:00           0        5.04       0.000
  WetBasin1_OuJu       JUNCTION      0.00     2.01   446  20:00           0           5       0.000
  WetBasin1_WetTrJu    JUNCTION      0.00     0.03   426  11:33           0        1.55       0.000
  WetBasin1_SurTrJu    JUNCTION      0.00     0.01    16  09:44           0        1.25       0.000
  Outfall1             OUTFALL       0.00     2.01   446  20:00           0           5       0.000
  GW                   OUTFALL       0.00     0.00     0  00:00           0           0       0.000 gal
  WetBasin1_Di         DIVIDER       0.00     2.01   446  20:00           0        5.04       0.000
  WetBasin1_WetSt      STORAGE       0.00     0.03    16  17:42           0        1.59       2.074
  WetBasin1_SurSt      STORAGE       0.00     1.98   446  20:00           0        3.45       0.006
  
  
  **********************
  Node Surcharge Summary
  **********************
  
  Surcharging occurs when water rises above the top of the highest conduit.
  ---------------------------------------------------------------------
                                               Max. Height   Min. Depth
                                   Hours       Above Crown    Below Rim
  Node                 Type      Surcharged           Feet         Feet
  ---------------------------------------------------------------------
  Outfall1_UsJu        JUNCTION    17520.01          0.000        4.000
  Catch1_Ju            JUNCTION    17520.01          0.000        4.000
  WetBasin1_InJu       JUNCTION    17520.01          0.000        4.000
  WetBasin1_SurTrJu    JUNCTION    17520.01          0.000        4.000
  WetBasin1_Di         DIVIDER     17520.01          0.000        4.000
  
  
  *********************
  Node Flooding Summary
  *********************
  
  No nodes were flooded.
  
  
  **********************
  Storage Volume Summary
  **********************
  
  --------------------------------------------------------------------------------------------------
                         Average     Avg  Evap Infil       Maximum     Max    Time of Max    Maximum
                          Volume    Pcnt  Pcnt  Pcnt        Volume    Pcnt     Occurrence    Outflow
  Storage Unit          1000 ft3    Full  Loss  Loss      1000 ft3    Full    days hr:min        CFS
  --------------------------------------------------------------------------------------------------
  WetBasin1_WetSt          2.322      19     2     0         2.588      21     426  11:33       0.03
  WetBasin1_SurSt          0.217       1     0     0         3.096      21     446  20:00       1.98
  
  
  ***********************
  Outfall Loading Summary
  ***********************
  
  -----------------------------------------------------------------------------------------------------------------------------------------------
                         Flow       Avg       Max       Total         Total         Total         Total         Total         Total         Total
                         Freq      Flow      Flow      Volume           TSS           FSP            TP           SRP            TN           DIN
  Outfall Node           Pcnt       CFS       CFS    10^6 gal           lbs           lbs           lbs           lbs           lbs           lbs
  -----------------------------------------------------------------------------------------------------------------------------------------------
  Outfall1              34.91      0.03      2.01       4.997     13052.638      9219.890        27.336         3.325       101.267        15.947
  GW                     0.00      0.00      0.00       0.000         0.000         0.000         0.000         0.000         0.000         0.000
  -----------------------------------------------------------------------------------------------------------------------------------------------
  System                17.45      0.03      2.01       4.997     13052.638      9219.890        27.336         3.325       101.267        15.947
  
  
  ********************
  Link Flow Summary
  ********************
  
  -----------------------------------------------------------------------------
                                 Maximum  Time of Max   Maximum    Max/    Max/
                                  |Flow|   Occurrence   |Veloc|    Full    Full
  Link                 Type          CFS  days hr:min    ft/sec    Flow   Depth
  -----------------------------------------------------------------------------
  Outfall1_UsCo        DUMMY        2.01   446  20:00
  Catch1_DsCo          DUMMY        2.01   446  20:00
  WetBasin1_DsCo       DUMMY        2.01   446  20:00
  WetBasin1_InCo       DUMMY        2.01   446  20:00
  WetBasin1_WetInCo    DUMMY        0.03    16  17:42
  WetBasin1_SurInCo    DUMMY        1.98   446  20:00
  WetBasin1_WetOtCo    DUMMY        0.03   426  11:33
  WetBasin1_SurOtCo    DUMMY        0.01    16  09:44
  WetBasin1_WetTrWe    WEIR         0.03   426  11:33                      0.00
  WetBasin1_SurByWe    WEIR         1.96   446  20:00                      0.00
  WetBasin1_SurTrOl    DUMMY        0.01    16  09:44
  
  
  *************************
  Conduit Surcharge Summary
  *************************
  
  No conduits were surcharged.
  
  
  ***************************
  Link Pollutant Load Summary
  ***************************
  
  --------------------------------------------------------------------------------------------------------
                                 TSS           FSP            TP           SRP            TN           DIN
  Link                           lbs           lbs           lbs           lbs           lbs           lbs
  --------------------------------------------------------------------------------------------------------
  Outfall1_UsCo           1.305e+004      9219.890        27.336         3.325       101.267        15.947
  Catch1_DsCo             2.841e+004    1.975e+004        51.768         4.556       165.245        21.121
  WetBasin1_DsCo          1.305e+004      9220.602        27.338         3.325       101.272        15.949
  WetBasin1_InCo          2.841e+004    1.975e+004        51.768         4.556       165.244        21.121
  WetBasin1_WetInCo         8694.703      6045.734        15.843         1.394        50.571         6.464
  WetBasin1_SurInCo       1.972e+004    1.371e+004        35.925         3.161       114.671        14.657
  WetBasin1_WetOtCo          129.403       129.403         1.294         0.518        12.293         1.294
  WetBasin1_SurOtCo          343.106       343.106         3.119         0.790        15.804         5.302
  WetBasin1_WetTrWe         8576.388      5963.465        15.628         1.375        49.883         6.376
  WetBasin1_SurByWe       1.258e+004      8748.368        22.925         2.017        73.178         9.354
  WetBasin1_SurTrOl         7132.777      4959.671        12.997         1.144        41.487         5.303
  

  Analysis begun on:  Mon Jun 16 12:06:05 2014
  Analysis ended on:  Mon Jun 16 12:06:13 2014
  Total elapsed time: 00:00:08