
  EPA STORM WATER MANAGEMENT MODEL - VERSION 5.1 (Build 5.1.001)
  --------------------------------------------------------------

  Input Files 
  WARNING 04: minimum elevation drop used for Conduit Outfall2_UsCo
  WARNING 05: minimum slope used for Conduit Outfall2_UsCo
  WARNING 04: minimum elevation drop used for Conduit Catch1_DsCo
  WARNING 05: minimum slope used for Conduit Catch1_DsCo
  WARNING 04: minimum elevation drop used for Conduit Junction1_DsCo
  WARNING 05: minimum slope used for Conduit Junction1_DsCo
  WARNING 04: minimum elevation drop used for Conduit DryBasin1_DsCo
  WARNING 05: minimum slope used for Conduit DryBasin1_DsCo
  WARNING 04: minimum elevation drop used for Conduit Divider3_DsCo
  WARNING 05: minimum slope used for Conduit Divider3_DsCo
  WARNING 04: minimum elevation drop used for Conduit Divider3_DsCo2
  WARNING 05: minimum slope used for Conduit Divider3_DsCo2
  WARNING 04: minimum elevation drop used for Conduit InfiltrationBasin1_DsCo
  WARNING 05: minimum slope used for Conduit InfiltrationBasin1_DsCo
  WARNING 04: minimum elevation drop used for Conduit WetBasin1_DsCo
  WARNING 05: minimum slope used for Conduit WetBasin1_DsCo
  WARNING 04: minimum elevation drop used for Conduit CartridgeFilter1_DsCo
  WARNING 05: minimum slope used for Conduit CartridgeFilter1_DsCo
  WARNING 04: minimum elevation drop used for Conduit BedFilter1_DsCo
  WARNING 05: minimum slope used for Conduit BedFilter1_DsCo
  WARNING 04: minimum elevation drop used for Conduit TreatmentVault1_DsCo
  WARNING 05: minimum slope used for Conduit TreatmentVault1_DsCo
  WARNING 04: minimum elevation drop used for Conduit DryBasin1_OtCo
  WARNING 05: minimum slope used for Conduit DryBasin1_OtCo
  WARNING 04: minimum elevation drop used for Conduit DryBasin1_InCo
  WARNING 05: minimum slope used for Conduit DryBasin1_InCo
  WARNING 04: minimum elevation drop used for Conduit InfiltrationBasin1_InCo
  WARNING 05: minimum slope used for Conduit InfiltrationBasin1_InCo
  WARNING 04: minimum elevation drop used for Conduit WetBasin1_InCo
  WARNING 05: minimum slope used for Conduit WetBasin1_InCo
  WARNING 04: minimum elevation drop used for Conduit WetBasin1_WetInCo
  WARNING 05: minimum slope used for Conduit WetBasin1_WetInCo
  WARNING 04: minimum elevation drop used for Conduit WetBasin1_SurInCo
  WARNING 05: minimum slope used for Conduit WetBasin1_SurInCo
  WARNING 04: minimum elevation drop used for Conduit WetBasin1_WetOtCo
  WARNING 05: minimum slope used for Conduit WetBasin1_WetOtCo
  WARNING 04: minimum elevation drop used for Conduit WetBasin1_SurOtCo
  WARNING 05: minimum slope used for Conduit WetBasin1_SurOtCo
  WARNING 04: minimum elevation drop used for Conduit BedFilter1_OtCo
  WARNING 05: minimum slope used for Conduit BedFilter1_OtCo
  WARNING 04: minimum elevation drop used for Conduit BedFilter1_InCo
  WARNING 05: minimum slope used for Conduit BedFilter1_InCo
  WARNING 04: minimum elevation drop used for Conduit CartridgeFilter1_OtCo
  WARNING 05: minimum slope used for Conduit CartridgeFilter1_OtCo
  WARNING 04: minimum elevation drop used for Conduit CartridgeFilter1_TrCo
  WARNING 05: minimum slope used for Conduit CartridgeFilter1_TrCo
  WARNING 04: minimum elevation drop used for Conduit CartridgeFilter1_ByCo
  WARNING 05: minimum slope used for Conduit CartridgeFilter1_ByCo
  WARNING 04: minimum elevation drop used for Conduit CartridgeFilter1_InCo
  WARNING 05: minimum slope used for Conduit CartridgeFilter1_InCo
  WARNING 04: minimum elevation drop used for Conduit TreatmentVault1_OtCo
  WARNING 05: minimum slope used for Conduit TreatmentVault1_OtCo
  WARNING 04: minimum elevation drop used for Conduit TreatmentVault1_TrCo
  WARNING 05: minimum slope used for Conduit TreatmentVault1_TrCo
  WARNING 04: minimum elevation drop used for Conduit TreatmentVault1_ByCo
  WARNING 05: minimum slope used for Conduit TreatmentVault1_ByCo
  WARNING 04: minimum elevation drop used for Conduit TreatmentVault1_InCo
  WARNING 05: minimum slope used for Conduit TreatmentVault1_InCo
  
  ***************** 1.837e+004        44.393         6.231       120.895        14.482
  DryBasin1_GwOl          1.067e+004      7715.865        18.515         2.554        50.252         6.036
  InfiltrationBasin1_GwOl      3345.667      2633.110         9.735         2.313        48.240         5.379
  WetBasin1_SurTrOl            0.000         0.000         0.000         0.000         0.000         0.000
  BedFilter1_GwOl              0.000         0.000         0.000         0.000         0.000         0.000
  

  Analysis begun on:  Mon May 05 10:26:11 2014
  Analysis ended on:  Mon May 05 10:27:17 2014
  Total elapsed time: 00:01:06