
  EPA STORM WATER MANAGEMENT MODEL - VERSION 5.1 (Build 5.1.006)
  --------------------------------------------------------------

  Input Files 
  WARNING 04: minimum elevation drop used for Conduit SFR_Outfall_UsCo
  WARNING 05: minimum slope used for Conduit SFR_Outfall_UsCo
  WARNING 04: minimum elevation drop used for Conduit MFR_Outfall_UsCo
  WARNING 05: minimum slope used for Conduit MFR_Outfall_UsCo
  WARNING 04: minimum elevation drop used for Conduit CICU_Outfall_UsCo
  WARNING 05: minimum slope used for Conduit CICU_Outfall_UsCo
  WARNING 04: minimum elevation drop used for Conduit PR_Outfall_UsCo
  WARNING 05: minimum slope used for Conduit PR_Outfall_UsCo
  WARNING 04: minimum elevation drop used for Conduit SR_Outfall_UsCo
  WARNING 05: minimum slope used for Conduit SR_Outfall_UsCo
  WARNING 04: minimum elevation drop used for Conduit Pervious_Outfall_UsCo
  WARNING 05: minimum slope used for Conduit Pervious_Outfall_UsCo
  WARNING 04: minimum elevation drop used for Conduit SFR_DsCo
  WARNING 05: minimum slope used for Conduit SFR_DsCo
  WARNING 04: minimum elevation drop used for Conduit MFR_DsCo
  WARNING 05: minimum slope used for Conduit MFR_DsCo
  WARNING 04: minimum elevation drop used for Conduit CICU_DsCo
  WARNING 05: minimum slope used for Conduit CICU_DsCo
  WARNING 04: minimum elevation drop used for Conduit PR_DsCo
  WARNING 05: minimum slope used for Conduit PR_DsCo
  WARNING 04: minimum elevation drop used for Conduit SR_DsCo
  WARNING 05: minimum slope used for Conduit SR_DsCo
  WARNING 04: minimum elevation drop used for Conduit Pervious_DsCo
  WARNING 05: minimum slope used for Conduit Pervious_DsCo
  
  *********************************************************
  NOTE: The summary statistics displayed in this report are
  based on results found at every computational time step,  
  not just on results from each reporting time step.
  *********************************************************
  
  ****************
  Analysis Options
  ****************
  Flow Units ............... CFS
  Process Models:
    Rainfall/Runoff ........ YES
    RDII ................... NO
    Snowmelt ............... YES
    Groundwater ............ YES
    Flow Routing ........... YES
    Ponding Allowed ........ NO
    Water Quality .......... YES
  Infiltration Method ...... GREEN_AMPT
  Flow Routing Method ...... KINWAVE
  Starting Date ............ OCT-01-2004 00:00:00
  Ending Date .............. OCT-01-2006 00:00:00
  Antecedent Dry Days ...... 0.0
  Report Time Step ......... 00:15:00
  Wet Time Step ............ 00:15:00
  Dry Time Step ............ 04:00:00
  Routing Time Step ........ 30.00 sec
  
  
  *********************
  Rainfall File Summary
  *********************
  Station    First        Last         Recording   Periods    Periods    Periods
  ID         Date         Date         Frequency  w/Precip    Missing    Malfunc.
  -------------------------------------------------------------------------------
  204        NOV-03-1988  NOV-14-2006     60 min     10996          0          0

  
  **************************        Volume         Depth
  Runoff Quantity Continuity     acre-feet        inches
  **************************     ---------       -------
  Initial Snow Cover .......         0.000         0.000
  Total Precipitation ......      1002.202        99.470
  Evaporation Loss .........        56.068         5.565
  Infiltration Loss ........       852.301        84.592
  Surface Runoff ...........        96.333         9.561
  Snow Removed .............         0.000         0.000
  Final Snow Cover .........         0.000         0.000
  Final Surface Storage ....         0.000         0.000
  Continuity Error (%) .....        -0.250
  
  
  **************************           TSS           FSP            TP           SRP            TN
  Runoff Quality Continuity            lbs           lbs           lbs           lbs           lbs
  **************************    ----------    ----------    ----------    ----------    ----------
  Initial Buildup ..........         0.000         0.000         0.000         0.000         0.000
  Surface Buildup ..........    175324.011    114988.381       431.594        65.005      1663.186
  Wet Deposition ...........         0.000         0.000         0.000         0.000         0.000
  Sweeping Removal .........         0.000         0.000         0.000         0.000         0.000
  Infiltration Loss ........     90393.857     59478.001       232.646        29.755       909.018
  BMP Removal ..............         0.000         0.000         0.000         0.000         0.000
  Surface Runoff ...........     84986.067     55549.666       199.008        35.242       754.342
  Remaining Buildup ........         0.000         0.000         0.000         0.000         0.000
  Continuity Error (%) .....        -0.032        -0.034        -0.014         0.011        -0.010
  
  
  **************************           DIN
  Runoff Quality Continuity            lbs
  **************************    ----------
  Initial Buildup ..........         0.000
  Surface Buildup ..........       209.342
  Wet Deposition ...........         0.000
  Sweeping Removal .........         0.000
  Infiltration Loss ........       113.839
  BMP Removal ..............         0.000
  Surface Runoff ...........        95.532
  Remaining Buildup ........         0.000
  Continuity Error (%) .....        -0.014
  
  
  **************************        Volume         Depth
  Groundwater Continuity         acre-feet        inches
  **************************     ---------       -------
  Initial Storage ..........     55547.384      5513.160
  Infiltration .............       852.301        84.592
  Upper Zone ET ............        95.083         9.437
  Lower Zone ET ............         0.000         0.000
  Deep Percolation .........         0.000         0.000
  Groundwater Flow .........         0.000         0.000
  Final Storage ............     56304.603      5588.315
  Continuity Error (%) .....         0.000
  
  
  **************************        Volume        Volume
  Flow Routing Continuity        acre-feet      10^6 gal
  **************************     ---------     ---------
  Dry Weather Inflow .......         0.000         0.000
  Wet Weather Inflow .......        96.333        31.392
  Groundwater Inflow .......         0.000         0.000
  RDII Inflow ..............         0.000         0.000
  External Inflow ..........         0.000         0.000
  External Outflow .........        96.333        31.392
  Internal Outflow .........         0.000         0.000
  Evaporation Loss .........         0.000         0.000
  Seepage Loss .............         0.000         0.000
  Initial Stored Volume ....         0.000         0.000
  Final Stored Volume ......         0.000         0.000
  Continuity Error (%) .....         0.000
  
  
  **************************           TSS           FSP            TP           SRP            TN
  Quality Routing Continuity           lbs           lbs           lbs           lbs           lbs
  **************************    ----------    ----------    ----------    ----------    ----------
  Dry Weather Inflow .......         0.000         0.000         0.000         0.000         0.000
  Wet Weather Inflow .......     84986.067     55549.666       199.008        35.242       754.342
  Groundwater Inflow .......         0.000         0.000         0.000         0.000         0.000
  RDII Inflow ..............         0.000         0.000         0.000         0.000         0.000
  External Inflow ..........         0.000         0.000         0.000         0.000         0.000
  Internal Flooding ........         0.000         0.000         0.000         0.000         0.000
  External Outflow .........     84990.032     55553.912       199.013        35.246       754.348
  Mass Reacted .............         0.000         0.000         0.000         0.000         0.000
  Initial Stored Mass ......         0.000         0.000         0.000         0.000         0.000
  Final Stored Mass ........         0.000         0.000         0.000         0.000         0.000
  Continuity Error (%) .....        -0.005        -0.008        -0.003        -0.011        -0.001
  
  
  **************************           DIN
  Quality Routing Continuity           lbs
  **************************    ----------
  Dry Weather Inflow .......         0.000
  Wet Weather Inflow .......        95.532
  Groundwater Inflow .......         0.000
  RDII Inflow ..............         0.000
  External Inflow ..........         0.000
  Internal Flooding ........         0.000
  External Outflow .........        95.536
  Mass Reacted .............         0.000
  Initial Stored Mass ......         0.000
  Final Stored Mass ........         0.000
  Continuity Error (%) .....        -0.005
  
  
  ********************************
  Highest Flow Instability Indexes
  ********************************
  All links are stable.
  
  
  *************************
  Routing Time Step Summary
  *************************
  Minimum Time Step           :    30.00 sec
  Average Time Step           :    30.00 sec
  Maximum Time Step           :    30.00 sec
  Percent in Steady State     :     0.00
  Average Iterations per Step :     1.00
  Percent Not Converging      :     0.00
  
  
  ***************************
  Subcatchment Runoff Summary
  ***************************
  
  --------------------------------------------------------------------------------------------------------
                            Total      Total      Total      Total      Total       Total     Peak  Runoff
                           Precip      Runon       Evap      Infil     Runoff      Runoff   Runoff   Coeff
  Subcatchment                 in         in         in         in         in    10^6 gal      CFS
  --------------------------------------------------------------------------------------------------------
  SFR_SfrToInfCa            99.47       0.00       2.13      72.89      24.63        6.69     1.54   0.248
  SFR_SfrIsInfCa            99.47    1970.23       4.49    1773.70     293.52        1.00     1.27   0.142
  MFR_MfrToInfCa            99.47       0.00       2.86      64.02      32.80        7.13     1.64   0.330
  MFR_MfrIsInfCa            99.47    1973.03       4.49    1774.74     295.23        1.07     1.36   0.142
  CICU_CicToInfCa           99.47       0.00       3.59      55.16      40.97        5.56     1.28   0.412
  CICU_CicIsInfCa           99.47    1969.49       4.46    1771.76     294.75        0.83     1.06   0.142
  PR_PrrToInfCa             99.47       0.00      13.25      26.22      60.30        8.19     2.27   0.606
  PR_PrrIsInfCa             99.47    1805.35       4.72    1639.08     262.66        1.19     1.82   0.138
  SR_SerToInfCa             99.47       0.00      11.58      35.52      52.65        7.15     1.84   0.529
  SR_SerIsInfCa             99.47    1803.16       4.73    1640.46     259.09        1.03     1.56   0.136
  PR_PrrToDspCa             99.47       0.00      13.25      26.22      60.30        8.19     2.27   0.606
  PR_PrrIsDspCa             99.47    2621.68       0.88    1775.58     954.90        2.98     2.14   0.351
  SR_SerToDspCa             99.47       0.00      11.58      35.52      52.65        7.15     1.84   0.529
  SR_SerIsDspCa             99.47    2289.23       0.79    1624.92     771.76        2.41     1.74   0.323
  SFR_SfrToOutCa            99.47       0.00       2.13      91.36       6.16        1.67     0.39   0.062
  MFR_MfrToOutCa            99.47       0.00       2.86      88.63       8.20        2.67     0.62   0.082
  CICU_CicToOutCa           99.47       0.00       3.59      85.88      10.25        4.17     1.06   0.103
  PR_PrrToOutCa             99.47       0.00      13.36      58.26      28.31        7.69     4.66   0.285
  SR_SerToOutCa             99.47       0.00      11.61      70.97      17.24        4.68     3.84   0.173
  Pervious_OthrToOutCa      99.47       0.00       0.00      99.47       0.00        0.00     0.00   0.000
  
  
  ****************************
  Subcatchment Washoff Summary
  ****************************
  
  --------------------------------------------------------------------------------------------------------
                                 TSS           FSP            TP           SRP            TN           DIN
  Subcatchment                   lbs           lbs           lbs           lbs           lbs           lbs
  --------------------------------------------------------------------------------------------------------
  SFR_SfrToInfCa            2156.660       774.186        23.281         7.189        87.206         7.189
  SFR_SfrIsInfCa             426.217       119.553         3.628         1.274        13.894         1.124
  MFR_MfrToInfCa            3331.937      1931.815        31.252         7.680       151.237        22.331
  MFR_MfrIsInfCa             604.161       287.001         4.801         1.363        23.231         3.313
  CICU_CicToInfCa           9420.138      5933.763        24.751         2.309        98.634         9.005
  CICU_CicIsInfCa           1451.669       860.135         3.795         0.533        15.321         1.371
  PR_PrrToInfCa            37159.536     26065.762        75.111         6.574       249.949        32.377
  PR_PrrIsInfCa             5347.342      3663.308        10.865         1.210        36.662         4.647
  SR_SerToInfCa            14132.286      8365.803        33.722         3.368       159.274        20.947
  SR_SerIsInfCa             2078.387      1167.904         4.964         0.715        23.477         2.997
  PR_PrrToDspCa            37159.536     26065.762        75.111         6.574       249.949        32.377
  PR_PrrIsDspCa            13555.796      9289.443        27.542         3.058        92.918        11.781
  SR_SerToDspCa            14132.286      8365.803        33.722         3.368       159.274        20.947
  SR_SerIsDspCa             4917.376      2764.442        11.746         1.688        55.545         7.093
  SFR_SfrToOutCa             728.106       262.066         6.042         1.859        22.618         1.859
  MFR_MfrToOutCa            3172.362      1839.970        12.436         3.045        60.148         8.883
  CICU_CicToOutCa           9923.212      6250.553        23.502        12.387        82.760         9.809
  PR_PrrToOutCa            33977.253     23833.531        68.678         6.011       228.544        29.604
  SR_SerToOutCa             8804.186      5211.760        21.008         2.098        99.225        13.050
  Pervious_OthrToOutCa         0.000         0.000         0.000         0.000         0.000         0.000
  --------------------------------------------------------------------------------------------------------
  System                  202478.447    133052.558       495.957        72.305      1909.865       240.704
  
  
  ******************
  Node Depth Summary
  ******************
  
  ---------------------------------------------------------------------
                                 Average  Maximum  Maximum  Time of Max
                                   Depth    Depth      HGL   Occurrence
  Node                 Type         Feet     Feet     Feet  days hr:min
  ---------------------------------------------------------------------
  SFR_Outfall_UsJu     JUNCTION     0.00     0.00     0.00     0  00:00
  MFR_Outfall_UsJu     JUNCTION     0.00     0.00     0.00     0  00:00
  CICU_Outfall_UsJu    JUNCTION     0.00     0.00     0.00     0  00:00
  PR_Outfall_UsJu      JUNCTION     0.00     0.00     0.00     0  00:00
  SR_Outfall_UsJu      JUNCTION     0.00     0.00     0.00     0  00:00
  Pervious_Outfall_UsJu JUNCTION     0.00     0.00     0.00     0  00:00
  SFR_Ju               JUNCTION     0.00     0.00     0.00     0  00:00
  MFR_Ju               JUNCTION     0.00     0.00     0.00     0  00:00
  CICU_Ju              JUNCTION     0.00     0.00     0.00     0  00:00
  PR_Ju                JUNCTION     0.00     0.00     0.00     0  00:00
  SR_Ju                JUNCTION     0.00     0.00     0.00     0  00:00
  Pervious_Ju          JUNCTION     0.00     0.00     0.00     0  00:00
  SFR_Outfall          OUTFALL      0.00     0.00     0.00     0  00:00
  MFR_Outfall          OUTFALL      0.00     0.00     0.00     0  00:00
  CICU_Outfall         OUTFALL      0.00     0.00     0.00     0  00:00
  PR_Outfall           OUTFALL      0.00     0.00     0.00     0  00:00
  SR_Outfall           OUTFALL      0.00     0.00     0.00     0  00:00
  Pervious_Outfall     OUTFALL      0.00     0.00     0.00     0  00:00
  GW                   OUTFALL      0.00     0.00     0.00     0  00:00
  
  
  *******************
  Node Inflow Summary
  *******************
  
  -------------------------------------------------------------------------------------------------
                                  Maximum  Maximum                  Lateral       Total        Flow
                                  Lateral    Total  Time of Max      Inflow      Inflow     Balance
                                   Inflow   Inflow   Occurrence      Volume      Volume       Error
  Node                 Type           CFS      CFS  days hr:min    10^6 gal    10^6 gal     Percent
  -------------------------------------------------------------------------------------------------
  SFR_Outfall_UsJu     JUNCTION      0.00     1.59   455  21:45           0        2.67       0.000
  MFR_Outfall_UsJu     JUNCTION      0.00     1.87   455  21:45           0        3.74       0.000
  CICU_Outfall_UsJu    JUNCTION      0.00     1.86   514  15:00           0        5.01       0.000
  PR_Outfall_UsJu      JUNCTION      0.00     7.41   514  15:00           0        11.9       0.000
  SR_Outfall_UsJu      JUNCTION      0.00     6.09   514  15:00           0        8.12       0.000
  Pervious_Outfall_UsJu JUNCTION      0.00     0.00     0  00:00           0           0       0.000 gal
  SFR_Ju               JUNCTION      1.59     1.59   455  21:45        2.67        2.67       0.000
  MFR_Ju               JUNCTION      1.87     1.87   455  21:45        3.74        3.74       0.000
  CICU_Ju              JUNCTION      1.86     1.86   514  15:00        5.01        5.01       0.000
  PR_Ju                JUNCTION      7.41     7.41   514  15:00        11.9        11.9       0.000
  SR_Ju                JUNCTION      6.09     6.09   514  15:00        8.12        8.12       0.000
  Pervious_Ju          JUNCTION      0.00     0.00     0  00:00           0           0       0.000 gal
  SFR_Outfall          OUTFALL       0.00     1.59   455  21:45           0        2.67       0.000
  MFR_Outfall          OUTFALL       0.00     1.87   455  21:45           0        3.74       0.000
  CICU_Outfall         OUTFALL       0.00     1.86   514  15:00           0        5.01       0.000
  PR_Outfall           OUTFALL       0.00     7.41   514  15:00           0        11.9       0.000
  SR_Outfall           OUTFALL       0.00     6.09   514  15:00           0        8.12       0.000
  Pervious_Outfall     OUTFALL       0.00     0.00     0  00:00           0           0       0.000 gal
  GW                   OUTFALL       0.00     0.00     0  00:00           0           0       0.000 gal
  
  
  **********************
  Node Surcharge Summary
  **********************
  
  Surcharging occurs when water rises above the top of the highest conduit.
  ---------------------------------------------------------------------
                                               Max. Height   Min. Depth
                                   Hours       Above Crown    Below Rim
  Node                 Type      Surcharged           Feet         Feet
  ---------------------------------------------------------------------
  SFR_Outfall_UsJu     JUNCTION    17520.01          0.000        4.000
  MFR_Outfall_UsJu     JUNCTION    17520.01          0.000        4.000
  CICU_Outfall_UsJu    JUNCTION    17520.01          0.000        4.000
  PR_Outfall_UsJu      JUNCTION    17520.01          0.000        4.000
  SR_Outfall_UsJu      JUNCTION    17520.01          0.000        4.000
  Pervious_Outfall_UsJu JUNCTION    17520.01          0.000        4.000
  SFR_Ju               JUNCTION    17520.01          0.000        4.000
  MFR_Ju               JUNCTION    17520.01          0.000        4.000
  CICU_Ju              JUNCTION    17520.01          0.000        4.000
  PR_Ju                JUNCTION    17520.01          0.000        4.000
  SR_Ju                JUNCTION    17520.01          0.000        4.000
  Pervious_Ju          JUNCTION    17520.01          0.000        4.000
  
  
  *********************
  Node Flooding Summary
  *********************
  
  No nodes were flooded.
  
  
  ***********************
  Outfall Loading Summary
  ***********************
  
  -----------------------------------------------------------------------------------------------------------------------------------------------
                         Flow       Avg       Max       Total         Total         Total         Total         Total         Total         Total
                         Freq      Flow      Flow      Volume           TSS           FSP            TP           SRP            TN           DIN
  Outfall Node           Pcnt       CFS       CFS    10^6 gal           lbs           lbs           lbs           lbs           lbs           lbs
  -----------------------------------------------------------------------------------------------------------------------------------------------
  SFR_Outfall           13.41      0.04      1.59       2.668      1154.509       381.767         9.671         3.133        36.515         2.984
  MFR_Outfall           14.04      0.06      1.87       3.738      3778.989      2128.587        17.240         4.409        83.391        12.197
  CICU_Outfall          14.63      0.07      1.86       5.005     11378.075      7112.914        27.303        12.930        98.095        11.184
  PR_Outfall            25.64      0.10      7.41      11.859     52879.423     36786.415       107.083        10.276       358.110        46.032
  SR_Outfall            25.15      0.07      6.09       8.118     15799.035      9144.229        37.716         4.499       178.236        23.139
  Pervious_Outfall       0.00      0.00      0.00       0.000         0.000         0.000         0.000         0.000         0.000         0.000
  GW                     0.00      0.00      0.00       0.000         0.000         0.000         0.000         0.000         0.000         0.000
  -----------------------------------------------------------------------------------------------------------------------------------------------
  System                13.27      0.34     18.82      31.389     84990.032     55553.912       199.013        35.246       754.348        95.536
  
  
  ********************
  Link Flow Summary
  ********************
  
  -----------------------------------------------------------------------------
                                 Maximum  Time of Max   Maximum    Max/    Max/
                                  |Flow|   Occurrence   |Veloc|    Full    Full
  Link                 Type          CFS  days hr:min    ft/sec    Flow   Depth
  -----------------------------------------------------------------------------
  SFR_Outfall_UsCo     DUMMY        1.59   455  21:45
  MFR_Outfall_UsCo     DUMMY        1.87   455  21:45
  CICU_Outfall_UsCo    DUMMY        1.86   514  15:00
  PR_Outfall_UsCo      DUMMY        7.41   514  15:00
  SR_Outfall_UsCo      DUMMY        6.09   514  15:00
  Pervious_Outfall_UsCo DUMMY        0.00     0  00:00
  SFR_DsCo             DUMMY        1.59   455  21:45
  MFR_DsCo             DUMMY        1.87   455  21:45
  CICU_DsCo            DUMMY        1.86   514  15:00
  PR_DsCo              DUMMY        7.41   514  15:00
  SR_DsCo              DUMMY        6.09   514  15:00
  Pervious_DsCo        DUMMY        0.00     0  00:00
  
  
  *************************
  Conduit Surcharge Summary
  *************************
  
  No conduits were surcharged.
  
  
  ***************************
  Link Pollutant Load Summary
  ***************************
  
  --------------------------------------------------------------------------------------------------------
                                 TSS           FSP            TP           SRP            TN           DIN
  Link                           lbs           lbs           lbs           lbs           lbs           lbs
  --------------------------------------------------------------------------------------------------------
  SFR_Outfall_UsCo          1154.509       381.767         9.671         3.133        36.515         2.984
  MFR_Outfall_UsCo          3778.989      2128.587        17.240         4.409        83.391        12.197
  CICU_Outfall_UsCo       1.138e+004      7112.914        27.303        12.930        98.095        11.184
  PR_Outfall_UsCo         5.288e+004    3.679e+004       107.083        10.276       358.110        46.032
  SR_Outfall_UsCo         1.580e+004      9144.229        37.716         4.499       178.236        23.139
  Pervious_Outfall_UsCo         0.000         0.000         0.000         0.000         0.000         0.000
  SFR_DsCo                  1154.430       381.698         9.670         3.133        36.514         2.984
  MFR_DsCo                  3777.803      2127.806        17.239         4.409        83.386        12.196
  CICU_DsCo               1.138e+004      7111.883        27.301        12.925        98.089        11.182
  PR_DsCo                 5.288e+004    3.679e+004       107.085        10.278       358.118        46.033
  SR_DsCo                 1.580e+004      9144.213        37.717         4.500       178.243        23.139
  Pervious_DsCo                0.000         0.000         0.000         0.000         0.000         0.000
  

  Analysis begun on:  Wed Jun 11 17:20:31 2014
  Analysis ended on:  Wed Jun 11 17:20:41 2014
  Total elapsed time: 00:00:10