
  EPA STORM WATER MANAGEMENT MODEL - VERSION 5.1 (Build 5.1.006)
  --------------------------------------------------------------

  
  ERROR 211: invalid number  at line 86 of [INFIL] section:
  Catch1_RoadToInfCa 2.897      0          2.897     

  
  ERROR 211: invalid number  at line 88 of [INFIL] section:
  Catch1_RoadToPchCa 2.897      0          2.897     

  
  ERROR 211: invalid number  at line 90 of [INFIL] section:
  Catch1_RoadToOutCa 2.897      0          2.897     


  Analysis begun on:  Mon Jul 21 16:55:49 2014
  Analysis ended on:  Mon Jul 21 16:55:49 2014
  Total elapsed time: < 1 sec