
  EPA STORM WATER MANAGEMENT MODEL - VERSION 5.1 (Build 5.1.006)
  --------------------------------------------------------------

  Input Files 
  WARNING 04: minimum elevation drop used for Conduit Outfall1_UsCo
  WARNING 05: minimum slope used for Conduit Outfall1_UsCo
  WARNING 04: minimum elevation drop used for Conduit Catch1_DsCo
  WARNING 05: minimum slope used for Conduit Catch1_DsCo
  WARNING 04: minimum elevation drop used for Conduit DryBasin1_DsCo
  WARNING 05: minimum slope used for Conduit DryBasin1_DsCo
  WARNING 04: minimum elevation drop used for Conduit InfiltrationBasin1_DsCo
  WARNING 05: minimum slope used for Conduit InfiltrationBasin1_DsCo
  WARNING 04: minimum elevation drop used for Conduit CartridgeFilter1_DsCo
  WARNING 05: minimum slope used for Conduit CartridgeFilter1_DsCo
  WARNING 04: minimum elevation drop used for Conduit Divider2_DsCo
  WARNING 05: minimum slope used for Conduit Divider2_DsCo
  WARNING 04: minimum elevation drop used for Conduit Divider2_DsCo2
  WARNING 05: minimum slope used for Conduit Divider2_DsCo2
  WARNING 04: minimum elevation drop used for Conduit DryBasin1_OtCo
  WARNING 05: minimum slope used for Conduit DryBasin1_OtCo
  WARNING 04: minimum elevation drop used for Conduit DryBasin1_InCo
  WARNING 05: minimum slope used for Conduit DryBasin1_InCo
  WARNING 04: minimum elevation drop used for Conduit InfiltrationBasin1_InCo
  WARNING 05: minimum slope used for Conduit InfiltrationBasin1_InCo
  WARNING 04: minimum elevation drop used for Conduit CartridgeFilter1_OtCo
  WARNING 05: minimum slope used for Conduit CartridgeFilter1_OtCo
  WARNING 04: minimum elevation drop used for Conduit CartridgeFilter1_TrCo
  WARNING 05: minimum slope used for Conduit CartridgeFilter1_TrCo
  WARNING 04: minimum elevation drop used for Conduit CartridgeFilter1_ByCo
  WARNING 05: minimum slope used for Conduit CartridgeFilter1_ByCo
  WARNING 04: minimum elevation drop used for Conduit CartridgeFilter1_InCo
  WARNING 05: minimum slope used for Conduit CartridgeFilter1_InCo
  
  *********************************************************
  NOTE: The summary statistics displayed in this report are
  based on results found at every computational time step,  
  not just on results from each reporting time step.
  *********************************************************
  
  ****************
  Analysis Options
  ****************
  Flow Units ............... CFS
  Process Models:
    Rainfall/Runoff ........ YES
    RDII ................... NO
    Snowmelt ............... YES
    Groundwater ............ YES
    Flow Routing ........... YES
    Ponding Allowed ........ NO
    Water Quality .......... YES
  Infiltration Method ...... GREEN_AMPT
  Flow Routing Method ...... KINWAVE
  Starting Date ............ OCT-01-2004 00:00:00
  Ending Date .............. OCT-01-2006 00:00:00
  Antecedent Dry Days ...... 0.0
  Report Time Step ......... 00:15:00
  Wet Time Step ............ 00:15:00
  Dry Time Step ............ 04:00:00
  Routing Time Step ........ 30.00 sec
  
  
  *********************
  Rainfall File Summary
  *********************
  Station    First        Last         Recording   Periods    Periods    Periods
  ID         Date         Date         Frequency  w/Precip    Missing    Malfunc.
  -------------------------------------------------------------------------------
  204        NOV-03-1988  NOV-14-2006     60 min     10996          0          0

  
  **************************        Volume         Depth
  Runoff Quantity Continuity     acre-feet        inches
  **************************     ---------       -------
  Initial Snow Cover .......         0.000         0.000
  Total Precipitation ......        22.862        99.470
  Evaporation Loss .........         0.544         2.367
  Infiltration Loss ........        18.363        79.897
  Surface Runoff ...........         4.002        17.411
  Snow Removed .............         0.000         0.000
  Final Snow Cover .........         0.000         0.000
  Final Surface Storage ....         0.000         0.000
  Continuity Error (%) .....        -0.205
  
  
  **************************           TSS           FSP            TP           SRP            TN
  Runoff Quality Continuity            lbs           lbs           lbs           lbs           lbs
  **************************    ----------    ----------    ----------    ----------    ----------
  Initial Buildup ..........         0.000         0.000         0.000         0.000         0.000
  Surface Buildup ..........       434.706       246.134         1.839         0.502         7.658
  Wet Deposition ...........         0.000         0.000         0.000         0.000         0.000
  Sweeping Removal .........         0.000         0.000         0.000         0.000         0.000
  Infiltration Loss ........         0.000         0.000         0.000         0.000         0.000
  BMP Removal ..............         0.000         0.000         0.000         0.000         0.000
  Surface Runoff ...........       434.706       246.134         1.839         0.502         7.658
  Remaining Buildup ........         0.000         0.000         0.000         0.000         0.000
  Continuity Error (%) .....         0.000         0.000         0.000         0.000         0.000
  
  
  **************************           DIN
  Runoff Quality Continuity            lbs
  **************************    ----------
  Initial Buildup ..........         0.000
  Surface Buildup ..........         0.865
  Wet Deposition ...........         0.000
  Sweeping Removal .........         0.000
  Infiltration Loss ........         0.000
  BMP Removal ..............         0.000
  Surface Runoff ...........         0.865
  Remaining Buildup ........         0.000
  Continuity Error (%) .....         0.000
  
  
  **************************        Volume         Depth
  Groundwater Continuity         acre-feet        inches
  **************************     ---------       -------
  Initial Storage ..........      1267.108      5513.160
  Infiltration .............        -1.#IO        -1.#IO
  Upper Zone ET ............         2.960        12.877
  Lower Zone ET ............         0.000         0.000
  Deep Percolation .........         0.000         0.000
  Groundwater Flow .........         0.000         0.000
  Final Storage ............      1282.511      5580.180
  Continuity Error (%) .....        -1.#IO
  
  
  **************************        Volume        Volume
  Flow Routing Continuity        acre-feet      10^6 gal
  **************************     ---------     ---------
  Dry Weather Inflow .......         0.000         0.000
  Wet Weather Inflow .......         4.002         1.304
  Groundwater Inflow .......         0.000         0.000
  RDII Inflow ..............         0.000         0.000
  External Inflow ..........         0.000         0.000
  External Outflow .........         4.209         1.372
  Internal Outflow .........         0.000         0.000
  Evaporation Loss .........         0.000         0.000
  Seepage Loss .............         0.000         0.000
  Initial Stored Volume ....         0.000         0.000
  Final Stored Volume ......         0.000         0.000
  Continuity Error (%) .....        -5.190
  
  
  **************************           TSS           FSP            TP           SRP            TN
  Quality Routing Continuity           lbs           lbs           lbs           lbs           lbs
  **************************    ----------    ----------    ----------    ----------    ----------
  Dry Weather Inflow .......         0.000         0.000         0.000         0.000         0.000
  Wet Weather Inflow .......       434.706       246.134         1.839         0.502         7.658
  Groundwater Inflow .......         0.000         0.000         0.000         0.000         0.000
  RDII Inflow ..............         0.000         0.000         0.000         0.000         0.000
  External Inflow ..........         0.000         0.000         0.000         0.000         0.000
  Internal Flooding ........         0.000         0.000         0.000         0.000         0.000
  External Outflow .........       320.804       240.747         1.696         0.489         7.787
  Mass Reacted .............       121.176         9.404         0.174         0.022         0.000
  Initial Stored Mass ......         0.000         0.000         0.000         0.000         0.000
  Final Stored Mass ........         0.000         0.000         0.000         0.000         0.000
  Continuity Error (%) .....        -1.673        -1.632        -1.687        -1.684        -1.681
  
  
  **************************           DIN
  Quality Routing Continuity           lbs
  **************************    ----------
  Dry Weather Inflow .......         0.000
  Wet Weather Inflow .......         0.865
  Groundwater Inflow .......         0.000
  RDII Inflow ..............         0.000
  External Inflow ..........         0.000
  Internal Flooding ........         0.000
  External Outflow .........         0.880
  Mass Reacted .............         0.000
  Initial Stored Mass ......         0.000
  Final Stored Mass ........         0.000
  Continuity Error (%) .....        -1.674
  
  
  ********************************
  Highest Flow Instability Indexes
  ********************************
  Link DryBasin1_GwOl (10)
  Link DryBasin1_DsCo (9)
  Link DryBasin1_OtCo (9)
  Link DryBasin1_TrOl (9)
  Link Outfall1_UsCo (9)
  
  
  *************************
  Routing Time Step Summary
  *************************
  Minimum Time Step           :    30.00 sec
  Average Time Step           :    30.00 sec
  Maximum Time Step           :    30.00 sec
  Percent in Steady State     :     0.00
  Average Iterations per Step :     1.00
  Percent Not Converging      :     0.00
  
  
  ***************************
  Subcatchment Runoff Summary
  ***************************
  
  --------------------------------------------------------------------------------------------------------
                            Total      Total      Total      Total      Total       Total     Peak  Runoff
                           Precip      Runon       Evap      Infil     Runoff      Runoff   Runoff   Coeff
  Subcatchment                 in         in         in         in         in    10^6 gal      CFS
  --------------------------------------------------------------------------------------------------------
  Catch1_RoadToInfCa        99.47       0.00       3.90      49.25      46.90        0.13     0.03   0.471
  Catch1_RoadIsInfCa        99.47       0.00       0.00      99.47       0.00        0.00     0.00   0.000
  Catch1_RoadToPchCa        99.47       0.00       5.86      24.15      70.38        0.25     0.06   0.708
  Catch1_RoadIsPchCa        99.47       0.00       0.00      99.47       0.00        0.00     0.00   0.000
  Catch1_RoadToOutCa        99.47       0.00      13.86      22.29      63.89        0.35     0.09   0.642
  Catch1_SfrToOutCa         99.47       0.00       2.78      80.51      16.48        0.04     0.01   0.166
  Catch1_SfrToInfCa         99.47       0.00       2.78      64.02      32.97        0.09     0.02   0.331
  Catch1_SfrIsInfCa         99.47       0.00       2.78      64.02      32.97        0.09     0.02   0.331
  Catch1_MfrToOutCa         99.47       0.00       3.49      75.74      20.58        0.09     0.02   0.207
  Catch1_MfrToInfCa         99.47       0.00       3.46      55.16      41.27        0.04     0.01   0.415
  Catch1_MfrIsInfCa         99.47       0.00       3.46      55.16      41.27        0.04     0.01   0.415
  Catch1_CicToOutCa         99.47       0.00       4.21      70.98      24.68        0.12     0.03   0.248
  Catch1_CicToInfCa         99.47       0.00       4.14      46.30      49.58        0.03     0.01   0.498
  Catch1_CicIsInfCa         99.47       0.00       4.14      46.30      49.58        0.03     0.01   0.498
  Catch1_VgtToOutCa         99.47       0.00       0.00      99.47       0.00        0.00     0.00   0.000
  
  
  ****************************
  Subcatchment Washoff Summary
  ****************************
  
  --------------------------------------------------------------------------------------------------------
                                 TSS           FSP            TP           SRP            TN           DIN
  Subcatchment                   lbs           lbs           lbs           lbs           lbs           lbs
  --------------------------------------------------------------------------------------------------------
  Catch1_RoadToInfCa           0.000         0.000         0.000         0.000         0.000         0.000
  Catch1_RoadIsInfCa           0.000         0.000         0.000         0.000         0.000         0.000
  Catch1_RoadToPchCa           0.000         0.000         0.000         0.000         0.000         0.000
  Catch1_RoadIsPchCa           0.000         0.000         0.000         0.000         0.000         0.000
  Catch1_RoadToOutCa           0.000         0.000         0.000         0.000         0.000         0.000
  Catch1_SfrToOutCa           18.192         6.542         0.165         0.051         0.619         0.051
  Catch1_SfrToInfCa           28.999        10.410         0.313         0.097         1.173         0.097
  Catch1_SfrIsInfCa           10.410         0.744         0.025         0.022         0.122         0.008
  Catch1_MfrToOutCa           67.549        39.173         0.407         0.100         1.969         0.291
  Catch1_MfrToInfCa           21.039        12.198         0.197         0.048         0.955         0.141
  Catch1_MfrIsInfCa            5.222         0.373         0.013         0.011         0.061         0.004
  Catch1_CicToOutCa          234.415       147.658         0.590         0.156         2.244         0.227
  Catch1_CicToInfCa           45.741        28.812         0.120         0.011         0.479         0.044
  Catch1_CicIsInfCa            3.139         0.224         0.008         0.007         0.037         0.002
  Catch1_VgtToOutCa            0.000         0.000         0.000         0.000         0.000         0.000
  Catch1_VgtIsInfCa            0.000         0.000         0.000         0.000         0.000         0.000
  --------------------------------------------------------------------------------------------------------
  System                     434.706       246.134         1.839         0.502         7.658         0.865
  
  
  ******************
  Node Depth Summary
  ******************
  
  ---------------------------------------------------------------------
                                 Average  Maximum  Maximum  Time of Max
                                   Depth    Depth      HGL   Occurrence
  Node                 Type         Feet     Feet     Feet  days hr:min
  ---------------------------------------------------------------------
  Outfall1_UsJu        JUNCTION     0.00     0.00     0.00     0  00:00
  Catch1_Ju            JUNCTION     0.00     0.00     0.00     0  00:00
  DryBasin1_InJu       JUNCTION     0.00     0.00     0.00     0  00:00
  DryBasin1_TrJu       JUNCTION     0.00     0.00     0.00     0  00:00
  DryBasin1_OuJu       JUNCTION     0.00     0.00     0.00     0  00:00
  InfiltrationBasin1_InJu JUNCTION     0.00     0.00     0.00     0  00:00
  InfiltrationBasin1_OuJu JUNCTION     0.00     0.00     0.00     0  00:00
  CartridgeFilter1_InJu JUNCTION     0.00     0.00     0.00     0  00:00
  CartridgeFilter1_TrJu JUNCTION     0.00     0.00     0.00     0  00:00
  CartridgeFilter1_OuJu JUNCTION     0.00     0.00     0.00     0  00:00
  Outfall1             OUTFALL      0.00     0.00     0.00     0  00:00
  GW                   OUTFALL      0.00     0.00     0.00     0  00:00
  Divider2             DIVIDER      0.00     0.00     0.00     0  00:00
  CartridgeFilter1_Di  DIVIDER      0.00     0.00     0.00     0  00:00
  DryBasin1_St         STORAGE      0.10     2.71     2.71   514  15:00
  InfiltrationBasin1_St STORAGE      0.00     0.00     0.00     0  00:00
  
  
  *******************
  Node Inflow Summary
  *******************
  
  -------------------------------------------------------------------------------------------------
                                  Maximum  Maximum                  Lateral       Total        Flow
                                  Lateral    Total  Time of Max      Inflow      Inflow     Balance
                                   Inflow   Inflow   Occurrence      Volume      Volume       Error
  Node                 Type           CFS      CFS  days hr:min    10^6 gal    10^6 gal     Percent
  -------------------------------------------------------------------------------------------------
  Outfall1_UsJu        JUNCTION      0.00     0.26   514  15:00           0       0.995       0.000
  Catch1_Ju            JUNCTION      0.31     0.31   446  19:15         1.3         1.3       0.000
  DryBasin1_InJu       JUNCTION      0.00     0.31   446  19:15           0         1.3       0.000
  DryBasin1_TrJu       JUNCTION      0.00     0.01    16  09:20           0       0.868       0.000
  DryBasin1_OuJu       JUNCTION      0.00     0.26   514  15:00           0       0.995       0.000
  InfiltrationBasin1_InJu JUNCTION      0.00     0.00     0  00:00           0           0       0.000 gal
  InfiltrationBasin1_OuJu JUNCTION      0.00     0.00     0  00:00           0           0       0.000 gal
  CartridgeFilter1_InJu JUNCTION      0.00     0.31   446  19:15           0         1.3       0.000
  CartridgeFilter1_TrJu JUNCTION      0.00     0.00     0  00:00           0           0       0.000 gal
  CartridgeFilter1_OuJu JUNCTION      0.00     0.31   446  19:15           0         1.3       0.000
  Outfall1             OUTFALL       0.00     0.26   514  15:00           0       0.995       0.000
  GW                   OUTFALL       0.00     0.00    16  09:20           0       0.376       0.000
  Divider2             DIVIDER       0.00     0.31   446  19:15           0         1.3       0.000
  CartridgeFilter1_Di  DIVIDER       0.00     0.31   446  19:15           0         1.3       0.000
  DryBasin1_St         STORAGE       0.00     0.31   446  19:15           0         1.3      -4.934
  InfiltrationBasin1_St STORAGE       0.00     0.00     0  00:00           0           0       0.000 gal
  
  
  **********************
  Node Surcharge Summary
  **********************
  
  Surcharging occurs when water rises above the top of the highest conduit.
  ---------------------------------------------------------------------
                                               Max. Height   Min. Depth
                                   Hours       Above Crown    Below Rim
  Node                 Type      Surcharged           Feet         Feet
  ---------------------------------------------------------------------
  Outfall1_UsJu        JUNCTION    17520.01          0.000        4.000
  Catch1_Ju            JUNCTION    17520.01          0.000        4.000
  DryBasin1_InJu       JUNCTION    17520.01          0.000        4.000
  DryBasin1_TrJu       JUNCTION    17520.01          0.000        4.000
  InfiltrationBasin1_InJu JUNCTION    17520.01          0.000        4.000
  CartridgeFilter1_InJu JUNCTION    17520.01          0.000        4.000
  CartridgeFilter1_TrJu JUNCTION    17520.01          0.000        4.000
  CartridgeFilter1_OuJu JUNCTION    17520.01          0.000        4.000
  Divider2             DIVIDER     17520.01          0.000        4.000
  CartridgeFilter1_Di  DIVIDER     17520.01          0.000        4.000
  
  
  *********************
  Node Flooding Summary
  *********************
  
  No nodes were flooded.
  
  
  **********************
  Storage Volume Summary
  **********************
  
  --------------------------------------------------------------------------------------------------
                         Average     Avg  Evap Infil       Maximum     Max    Time of Max    Maximum
                          Volume    Pcnt  Pcnt  Pcnt        Volume    Pcnt     Occurrence    Outflow
  Storage Unit          1000 ft3    Full  Loss  Loss      1000 ft3    Full    days hr:min        CFS
  --------------------------------------------------------------------------------------------------
  DryBasin1_St             0.082       1     0     0         2.707      22     514  15:00       0.26
  InfiltrationBasin1_St     0.000       0     0     0         0.000       0       0  00:00       0.00
  
  
  ***********************
  Outfall Loading Summary
  ***********************
  
  -----------------------------------------------------------------------------------------------------------------------------------------------
                         Flow       Avg       Max       Total         Total         Total         Total         Total         Total         Total
                         Freq      Flow      Flow      Volume           TSS           FSP            TP           SRP            TN           DIN
  Outfall Node           Pcnt       CFS       CFS    10^6 gal           lbs           lbs           lbs           lbs           lbs           lbs
  -----------------------------------------------------------------------------------------------------------------------------------------------
  Outfall1              24.82      0.01      0.26       0.995       204.637       174.985         1.205         0.355         5.740         0.648
  GW                    21.90      0.00      0.00       0.376       116.166        65.762         0.491         0.134         2.047         0.231
  -----------------------------------------------------------------------------------------------------------------------------------------------
  System                23.36      0.01      0.26       1.372       320.804       240.747         1.696         0.489         7.787         0.880
  
  
  ********************
  Link Flow Summary
  ********************
  
  -----------------------------------------------------------------------------
                                 Maximum  Time of Max   Maximum    Max/    Max/
                                  |Flow|   Occurrence   |Veloc|    Full    Full
  Link                 Type          CFS  days hr:min    ft/sec    Flow   Depth
  -----------------------------------------------------------------------------
  Outfall1_UsCo        DUMMY        0.26   514  15:00
  Catch1_DsCo          DUMMY        0.31   446  19:15
  DryBasin1_DsCo       DUMMY        0.26   514  15:00
  InfiltrationBasin1_DsCo DUMMY        0.00     0  00:00
  CartridgeFilter1_DsCo DUMMY        0.31   446  19:15
  Divider2_DsCo        DUMMY        0.31   446  19:15
  Divider2_DsCo2       DUMMY        0.00     0  00:00
  DryBasin1_OtCo       DUMMY        0.01    16  09:20
  DryBasin1_InCo       DUMMY        0.31   446  19:15
  InfiltrationBasin1_InCo DUMMY        0.00     0  00:00
  CartridgeFilter1_OtCo DUMMY        0.00     0  00:00
  CartridgeFilter1_TrCo DUMMY        0.00     0  00:00
  CartridgeFilter1_ByCo DUMMY        0.31   446  19:15
  CartridgeFilter1_InCo DUMMY        0.31   446  19:15
  DryBasin1_ByWe       WEIR         0.24   514  15:00                      0.00
  InfiltrationBasin1_ByWe WEIR         0.00     0  00:00                      0.00
  DryBasin1_TrOl       DUMMY        0.01    16  09:20
  DryBasin1_GwOl       DUMMY        0.00    16  09:20
  InfiltrationBasin1_GwOl DUMMY        0.00     0  00:00
  
  
  *************************
  Conduit Surcharge Summary
  *************************
  
  No conduits were surcharged.
  
  
  ***************************
  Link Pollutant Load Summary
  ***************************
  
  --------------------------------------------------------------------------------------------------------
                                 TSS           FSP            TP           SRP            TN           DIN
  Link                           lbs           lbs           lbs           lbs           lbs           lbs
  --------------------------------------------------------------------------------------------------------
  Outfall1_UsCo              204.637       174.985         1.205         0.355         5.740         0.648
  Catch1_DsCo                434.491       246.005         1.838         0.502         7.655         0.865
  DryBasin1_DsCo             204.699       175.041         1.205         0.355         5.742         0.649
  InfiltrationBasin1_DsCo         0.000         0.000         0.000         0.000         0.000         0.000
  CartridgeFilter1_DsCo       433.811       245.601         1.835         0.502         7.645         0.864
  Divider2_DsCo              433.569       245.459         1.834         0.501         7.641         0.863
  Divider2_DsCo2               0.000         0.000         0.000         0.000         0.000         0.000
  DryBasin1_OtCo             162.253       151.025         1.026         0.306         4.995         0.564
  DryBasin1_InCo             433.317       245.311         1.834         0.501         7.637         0.863
  InfiltrationBasin1_InCo         0.000         0.000         0.000         0.000         0.000         0.000
  CartridgeFilter1_OtCo         0.000         0.000         0.000         0.000         0.000         0.000
  CartridgeFilter1_TrCo         0.000         0.000         0.000         0.000         0.000         0.000
  CartridgeFilter1_ByCo       434.045       245.740         1.836         0.502         7.648         0.864
  CartridgeFilter1_InCo       434.271       245.874         1.837         0.502         7.652         0.864
  DryBasin1_ByWe              42.514        24.076         0.180         0.049         0.749         0.085
  InfiltrationBasin1_ByWe         0.000         0.000         0.000         0.000         0.000         0.000
  DryBasin1_TrOl             283.483       160.479         1.200         0.328         4.996         0.564
  DryBasin1_GwOl             116.166        65.762         0.491         0.134         2.047         0.231
  InfiltrationBasin1_GwOl         0.000         0.000         0.000         0.000         0.000         0.000
  

  Analysis begun on:  Mon Jul 21 16:40:51 2014
  Analysis ended on:  Mon Jul 21 16:41:05 2014
  Total elapsed time: 00:00:14