
  EPA STORM WATER MANAGEMENT MODEL - VERSION 5.1 (Build 5.1.006)
  --------------------------------------------------------------

  Input Files 
  WARNING 04: minimum elevation drop used for Conduit Outfall1_UsCo
  WARNING 05: minimum slope used for Conduit Outfall1_UsCo
  WARNING 04: minimum elevation drop used for Conduit Outfall2_UsCo
  WARNING 05: minimum slope used for Conduit Outfall2_UsCo
  WARNING 04: minimum elevation drop used for Conduit Outfall3_UsCo
  WARNING 05: minimum slope used for Conduit Outfall3_UsCo
  WARNING 04: minimum elevation drop used for Conduit Outfall4_UsCo
  WARNING 05: minimum slope used for Conduit Outfall4_UsCo
  WARNING 04: minimum elevation drop used for Conduit Outfall5_UsCo
  WARNING 05: minimum slope used for Conduit Outfall5_UsCo
  WARNING 04: minimum elevation drop used for Conduit Outfall6_UsCo
  WARNING 05: minimum slope used for Conduit Outfall6_UsCo
  WARNING 04: minimum elevation drop used for Conduit Catch1_DsCo
  WARNING 05: minimum slope used for Conduit Catch1_DsCo
  WARNING 04: minimum elevation drop used for Conduit Catch2_DsCo
  WARNING 05: minimum slope used for Conduit Catch2_DsCo
  WARNING 04: minimum elevation drop used for Conduit Catch3_DsCo
  WARNING 05: minimum slope used for Conduit Catch3_DsCo
  WARNING 04: minimum elevation drop used for Conduit Catch4_DsCo
  WARNING 05: minimum slope used for Conduit Catch4_DsCo
  WARNING 04: minimum elevation drop used for Conduit Catch5_DsCo
  WARNING 05: minimum slope used for Conduit Catch5_DsCo
  WARNING 04: minimum elevation drop used for Conduit Catch6_DsCo
  WARNING 05: minimum slope used for Conduit Catch6_DsCo
  WARNING 04: minimum elevation drop used for Conduit DryBasin1_DsCo
  WARNING 05: minimum slope used for Conduit DryBasin1_DsCo
  WARNING 04: minimum elevation drop used for Conduit InfiltrationBasin1_DsCo
  WARNING 05: minimum slope used for Conduit InfiltrationBasin1_DsCo
  WARNING 04: minimum elevation drop used for Conduit WetBasin1_DsCo
  WARNING 05: minimum slope used for Conduit WetBasin1_DsCo
  WARNING 04: minimum elevation drop used for Conduit CartridgeFilter1_DsCo
  WARNING 05: minimum slope used for Conduit CartridgeFilter1_DsCo
  WARNING 04: minimum elevation drop used for Conduit BedFilter1_DsCo
  WARNING 05: minimum slope used for Conduit BedFilter1_DsCo
  WARNING 04: minimum elevation drop used for Conduit TreatmentVault1_DsCo
  WARNING 05: minimum slope used for Conduit TreatmentVault1_DsCo
  WARNING 04: minimum elevation drop used for Conduit DryBasin1_OtCo
  WARNING 05: minimum slope used for Conduit DryBasin1_OtCo
  WARNING 04: minimum elevation drop used for Conduit DryBasin1_InCo
  WARNING 05: minimum slope used for Conduit DryBasin1_InCo
  WARNING 04: minimum elevation drop used for Conduit InfiltrationBasin1_InCo
  WARNING 05: minimum slope used for Conduit InfiltrationBasin1_InCo
  WARNING 04: minimum elevation drop used for Conduit WetBasin1_InCo
  WARNING 05: minimum slope used for Conduit WetBasin1_InCo
  WARNING 04: minimum elevation drop used for Conduit WetBasin1_WetInCo
  WARNING 05: minimum slope used for Conduit WetBasin1_WetInCo
  WARNING 04: minimum elevation drop used for Conduit WetBasin1_SurInCo
  WARNING 05: minimum slope used for Conduit WetBasin1_SurInCo
  WARNING 04: minimum elevation drop used for Conduit WetBasin1_WetOtCo
  WARNING 05: minimum slope used for Conduit WetBasin1_WetOtCo
  WARNING 04: minimum elevation drop used for Conduit WetBasin1_SurOtCo
  WARNING 05: minimum slope used for Conduit WetBasin1_SurOtCo
  WARNING 04: minimum elevation drop used for Conduit BedFilter1_OtCo
  WARNING 05: minimum slope used for Conduit BedFilter1_OtCo
  WARNING 04: minimum elevation drop used for Conduit BedFilter1_InCo
  WARNING 05: minimum slope used for Conduit BedFilter1_InCo
  WARNING 04: minimum elevation drop used for Conduit CartridgeFilter1_OtCo
  WARNING 05: minimum slope used for Conduit CartridgeFilter1_OtCo
  WARNING 04: minimum elevation drop used for Conduit CartridgeFilter1_TrCo
  WARNING 05: minimum slope used for Conduit CartridgeFilter1_TrCo
  WARNING 04: minimum elevation drop used for Conduit CartridgeFilter1_ByCo
  WARNING 05: minimum slope used for Conduit CartridgeFilter1_ByCo
  WARNING 04: minimum elevation drop used for Conduit CartridgeFilter1_InCo
  WARNING 05: minimum slope used for Conduit CartridgeFilter1_InCo
  WARNING 04: minimum elevation drop used for Conduit TreatmentVault1_OtCo
  WARNING 05: minimum slope used for Conduit TreatmentVault1_OtCo
  WARNING 04: minimum elevation drop used for Conduit TreatmentVault1_TrCo
  WARNING 05: minimum slope used for Conduit TreatmentVault1_TrCo
  WARNING 04: minimum elevation drop used for Conduit TreatmentVault1_ByCo
  WARNING 05: minimum slope used for Conduit TreatmentVault1_ByCo
  WARNING 04: minimum elevation drop used for Conduit TreatmentVault1_InCo
  WARNING 05: minimum slope used for Conduit TreatmentVault1_InCo
  
  *********************************************************
  NOTE: The summary statistics displayed in this report are
  based on results found at every computational time step,  
  not just on results from each reporting time step.
  *********************************************************
  
  ****************
  Analysis Options
  ****************
  Flow Units ............... CFS
  Process Models:
    Rainfall/Runoff ........ YES
    RDII ................... NO
    Snowmelt ............... YES
    Groundwater ............ YES
    Flow Routing ........... YES
    Ponding Allowed ........ NO
    Water Quality .......... YES
  Infiltration Method ...... GREEN_AMPT
  Flow Routing Method ...... KINWAVE
  Starting Date ............ OCT-01-2004 00:00:00
  Ending Date .............. OCT-01-2006 00:00:00
  Antecedent Dry Days ...... 0.0
  Report Time Step ......... 00:15:00
  Wet Time Step ............ 00:15:00
  Dry Time Step ............ 04:00:00
  Routing Time Step ........ 30.00 sec
  
  
  *********************
  Rainfall File Summary
  *********************
  Station    First        Last         Recording   Periods    Periods    Periods
  ID         Date         Date         Frequency  w/Precip    Missing    Malfunc.
  -------------------------------------------------------------------------------
  204        NOV-03-1988  NOV-14-2006     60 min     10996          0          0

  
  **************************        Volume         Depth
  Runoff Quantity Continuity     acre-feet        inches
  **************************     ---------       -------
  Initial Snow Cover .......         0.000         0.000
  Total Precipitation ......      3779.860        99.470
  Evaporation Loss .........       108.476         2.855
  Infiltration Loss ........      3157.899        83.103
  Surface Runoff ...........       519.202        13.663
  Snow Removed .............         0.000         0.000
  Final Snow Cover .........         0.000         0.000
  Final Surface Storage ....         0.000         0.000
  Continuity Error (%) .....        -0.151
  
  
  **************************           TSS           FSP            TP           SRP            TN
  Runoff Quality Continuity            lbs           lbs           lbs           lbs           lbs
  **************************    ----------    ----------    ----------    ----------    ----------
  Initial Buildup ..........         0.000         0.000         0.000         0.000         0.000
  Surface Buildup ..........    991868.692    692101.727      1666.574       227.498      4675.343
  Wet Deposition ...........         0.000         0.000         0.000         0.000         0.000
  Sweeping Removal .........         0.000         0.000         0.000         0.000         0.000
  Infiltration Loss ........         0.000         0.000         0.000         0.000         0.000
  BMP Removal ..............         0.000         0.000         0.000         0.000         0.000
  Surface Runoff ...........    991868.692    692101.727      1666.574       227.498      4675.343
  Remaining Buildup ........         0.000         0.000         0.000         0.000         0.000
  Continuity Error (%) .....         0.000         0.000         0.000         0.000         0.000
  
  
  **************************           DIN
  Runoff Quality Continuity            lbs
  **************************    ----------
  Initial Buildup ..........         0.000
  Surface Buildup ..........       586.755
  Wet Deposition ...........         0.000
  Sweeping Removal .........         0.000
  Infiltration Loss ........         0.000
  BMP Removal ..............         0.000
  Surface Runoff ...........       586.755
  Remaining Buildup ........         0.000
  Continuity Error (%) .....         0.000
  
  
  **************************        Volume         Depth
  Groundwater Continuity         acre-feet        inches
  **************************     ---------       -------
  Initial Storage ..........    209500.080      5513.160
  Infiltration .............      3157.899        83.103
  Upper Zone ET ............       501.324        13.193
  Lower Zone ET ............         0.000         0.000
  Deep Percolation .........         0.000         0.000
  Groundwater Flow .........         0.000         0.000
  Final Storage ............    212156.655      5583.070
  Continuity Error (%) .....         0.000
  
  
  **************************        Volume        Volume
  Flow Routing Continuity        acre-feet      10^6 gal
  **************************     ---------     ---------
  Dry Weather Inflow .......         0.000         0.000
  Wet Weather Inflow .......       519.202       169.190
  Groundwater Inflow .......         0.000         0.000
  RDII Inflow ..............         0.000         0.000
  External Inflow ..........         0.000         0.000
  External Outflow .........       519.155       169.175
  Internal Outflow .........         0.000         0.000
  Evaporation Loss .........         0.017         0.006
  Seepage Loss .............         0.000         0.000
  Initial Stored Volume ....         0.000         0.000
  Final Stored Volume ......         0.000         0.000
  Continuity Error (%) .....         0.006
  
  
  **************************           TSS           FSP            TP           SRP            TN
  Quality Routing Continuity           lbs           lbs           lbs           lbs           lbs
  **************************    ----------    ----------    ----------    ----------    ----------
  Dry Weather Inflow .......         0.000         0.000         0.000         0.000         0.000
  Wet Weather Inflow .......    991868.692    692101.727      1666.574       227.498      4675.343
  Groundwater Inflow .......         0.000         0.000         0.000         0.000         0.000
  RDII Inflow ..............         0.000         0.000         0.000         0.000         0.000
  External Inflow ..........         0.000         0.000         0.000         0.000         0.000
  Internal Flooding ........         0.000         0.000         0.000         0.000         0.000
  External Outflow .........    972161.295    678554.666      1633.085       223.283      4597.230
  Mass Reacted .............     18470.223     12534.477        31.482         4.051        72.920
  Initial Stored Mass ......         0.000         0.000         0.000         0.000         0.000
  Final Stored Mass ........         0.000         0.000         0.000         0.000         0.000
  Continuity Error (%) .....         0.125         0.146         0.120         0.072         0.111
  
  
  **************************           DIN
  Quality Routing Continuity           lbs
  **************************    ----------
  Dry Weather Inflow .......         0.000
  Wet Weather Inflow .......       586.755
  Groundwater Inflow .......         0.000
  RDII Inflow ..............         0.000
  External Inflow ..........         0.000
  Internal Flooding ........         0.000
  External Outflow .........       578.843
  Mass Reacted .............         7.216
  Initial Stored Mass ......         0.000
  Final Stored Mass ........         0.000
  Continuity Error (%) .....         0.119
  
  
  ********************************
  Highest Flow Instability Indexes
  ********************************
  Link Outfall5_UsCo (2)
  Link BedFilter1_DsCo (2)
  Link BedFilter1_OtCo (2)
  Link BedFilter1_GwOl (2)
  
  
  *************************
  Routing Time Step Summary
  *************************
  Minimum Time Step           :    30.00 sec
  Average Time Step           :    30.00 sec
  Maximum Time Step           :    30.00 sec
  Percent in Steady State     :     0.00
  Average Iterations per Step :     1.00
  Percent Not Converging      :     0.00
  
  
  ***************************
  Subcatchment Runoff Summary
  ***************************
  
  --------------------------------------------------------------------------------------------------------
                            Total      Total      Total      Total      Total       Total     Peak  Runoff
                           Precip      Runon       Evap      Infil     Runoff      Runoff   Runoff   Coeff
  Subcatchment                 in         in         in         in         in    10^6 gal      CFS
  --------------------------------------------------------------------------------------------------------
  Catch1_PrrToOutCa         99.47       0.00      15.55      24.93      59.49       32.31    10.37   0.598
  Catch1_SerToOutCa         99.47       0.00      13.52      39.96      46.41       25.20    10.05   0.467
  Catch1_SfrToOutCa         99.47       0.00       2.93      76.39      20.41       11.08     6.27   0.205
  Catch1_MfrToOutCa         99.47       0.00       3.70      68.95      27.13       14.73     7.66   0.273
  Catch1_CicToOutCa         99.47       0.00       4.49      60.90      34.44       18.70     8.69   0.346
  Catch1_VgtToOutCa         99.47       0.00       0.36      96.78       2.37        1.29     2.10   0.024
  Catch1_OthrToOutCa        99.47       0.00       0.36      96.78       2.37       18.04    29.35   0.024
  Catch2_PrrToOutCa         99.47       0.00      15.55      24.93      59.49       32.31    10.37   0.598
  Catch2_SfrToOutCa         99.47       0.00       2.93      76.39      20.41       11.08     6.27   0.205
  Catch3_OthrToOutCa        99.47       0.00       0.02      99.21       0.26        0.03     0.33   0.003
  Catch4_OthrToOutCa        99.47       0.00       1.17      78.73      19.72        2.14     1.48   0.198
  Catch5_MfrToOutCa         99.47       0.00       3.59      75.65      20.48        2.22     0.51   0.206
  Catch6_OthrToOutCa        99.47       0.00       0.01      99.21       0.26        0.03     0.33   0.003
  
  
  ****************************
  Subcatchment Washoff Summary
  ****************************
  
  --------------------------------------------------------------------------------------------------------
                                 TSS           FSP            TP           SRP            TN           DIN
  Subcatchment                   lbs           lbs           lbs           lbs           lbs           lbs
  --------------------------------------------------------------------------------------------------------
  Catch1_PrrToOutCa       365161.508    272138.613       546.410        42.647      1327.375       170.586
  Catch1_SerToOutCa       142050.484     98772.712       258.838        22.778       826.212       105.606
  Catch1_SfrToOutCa         5139.391      1849.816        42.646        13.122       159.649        13.122
  Catch1_MfrToOutCa        18255.103     10587.960        71.560        17.525       346.117        51.114
  Catch1_CicToOutCa        45901.430     28912.946       108.714        57.299       382.822        45.375
  Catch1_VgtToOutCa           90.870        32.562         8.254         4.778        33.220         4.142
  Catch1_OthrToOutCa       36908.949      3695.438        27.473        10.041        53.311         3.044
  Catch2_PrrToOutCa       365161.508    272138.613       546.410        42.647      1327.375       170.586
  Catch2_SfrToOutCa         5139.391      1849.816        42.646        13.122       159.649        13.122
  Catch3_OthrToOutCa         236.553        23.772         0.355         0.112         0.545         0.003
  Catch4_OthrToOutCa        4839.457       482.160         2.143         0.679         6.429         2.357
  Catch5_MfrToOutCa         2747.495      1593.547        10.770         2.638        52.093         7.693
  Catch6_OthrToOutCa         236.553        23.772         0.355         0.112         0.545         0.003
  --------------------------------------------------------------------------------------------------------
  System                  991868.692    692101.727      1666.574       227.498      4675.343       586.755
  
  
  ******************
  Node Depth Summary
  ******************
  
  ---------------------------------------------------------------------
                                 Average  Maximum  Maximum  Time of Max
                                   Depth    Depth      HGL   Occurrence
  Node                 Type         Feet     Feet     Feet  days hr:min
  ---------------------------------------------------------------------
  Outfall1_UsJu        JUNCTION     0.00     0.00     0.00     0  00:00
  Outfall2_UsJu        JUNCTION     0.00     0.00     0.00     0  00:00
  Outfall3_UsJu        JUNCTION     0.00     0.00     0.00     0  00:00
  Outfall4_UsJu        JUNCTION     0.00     0.00     0.00     0  00:00
  Outfall5_UsJu        JUNCTION     0.00     0.00     0.00     0  00:00
  Outfall6_UsJu        JUNCTION     0.00     0.00     0.00     0  00:00
  Catch1_Ju            JUNCTION     0.00     0.00     0.00     0  00:00
  Catch2_Ju            JUNCTION     0.00     0.00     0.00     0  00:00
  Catch3_Ju            JUNCTION     0.00     0.00     0.00     0  00:00
  Catch4_Ju            JUNCTION     0.00     0.00     0.00     0  00:00
  Catch5_Ju            JUNCTION     0.00     0.00     0.00     0  00:00
  Catch6_Ju            JUNCTION     0.00     0.00     0.00     0  00:00
  DryBasin1_InJu       JUNCTION     0.00     0.00     0.00     0  00:00
  DryBasin1_TrJu       JUNCTION     0.00     0.00     0.00     0  00:00
  DryBasin1_OuJu       JUNCTION     0.00     0.00     0.00     0  00:00
  InfiltrationBasin1_InJu JUNCTION     0.00     0.00     0.00     0  00:00
  InfiltrationBasin1_OuJu JUNCTION     0.00     0.00     0.00     0  00:00
  WetBasin1_InJu       JUNCTION     0.00     0.00     0.00     0  00:00
  WetBasin1_OuJu       JUNCTION     0.00     0.00     0.00     0  00:00
  WetBasin1_WetTrJu    JUNCTION     0.00     0.00     0.00     0  00:00
  WetBasin1_SurTrJu    JUNCTION     0.00     0.00     0.00     0  00:00
  BedFilter1_InJu      JUNCTION     0.00     0.00     0.00     0  00:00
  BedFilter1_TrJu      JUNCTION     0.00     0.00     0.00     0  00:00
  BedFilter1_OuJu      JUNCTION     0.00     0.00     0.00     0  00:00
  CartridgeFilter1_InJu JUNCTION     0.00     0.00     0.00     0  00:00
  CartridgeFilter1_TrJu JUNCTION     0.00     0.00     0.00     0  00:00
  CartridgeFilter1_OuJu JUNCTION     0.00     0.00     0.00     0  00:00
  TreatmentVault1_InJu JUNCTION     0.00     0.00     0.00     0  00:00
  TreatmentVault1_TrJu JUNCTION     0.00     0.00     0.00     0  00:00
  TreatmentVault1_OuJu JUNCTION     0.00     0.00     0.00     0  00:00
  Outfall1             OUTFALL      0.00     0.00     0.00     0  00:00
  Outfall2             OUTFALL      0.00     0.00     0.00     0  00:00
  Outfall3             OUTFALL      0.00     0.00     0.00     0  00:00
  Outfall4             OUTFALL      0.00     0.00     0.00     0  00:00
  Outfall5             OUTFALL      0.00     0.00     0.00     0  00:00
  Outfall6             OUTFALL      0.00     0.00     0.00     0  00:00
  GW                   OUTFALL      0.00     0.00     0.00     0  00:00
  WetBasin1_Di         DIVIDER      0.00     0.00     0.00     0  00:00
  CartridgeFilter1_Di  DIVIDER      0.00     0.00     0.00     0  00:00
  TreatmentVault1_Di   DIVIDER      0.00     0.00     0.00     0  00:00
  DryBasin1_St         STORAGE      1.38     4.45     4.45   455  22:00
  InfiltrationBasin1_St STORAGE      1.42     3.62     3.62   446  20:00
  WetBasin1_WetSt      STORAGE      0.16     0.83     0.83   455  23:32
  WetBasin1_SurSt      STORAGE      0.00     2.00     2.00   455  23:39
  BedFilter1_St        STORAGE      0.15     2.75     2.75   514  15:00
  
  
  *******************
  Node Inflow Summary
  *******************
  
  -------------------------------------------------------------------------------------------------
                                  Maximum  Maximum                  Lateral       Total        Flow
                                  Lateral    Total  Time of Max      Inflow      Inflow     Balance
                                   Inflow   Inflow   Occurrence      Volume      Volume       Error
  Node                 Type           CFS      CFS  days hr:min    10^6 gal    10^6 gal     Percent
  -------------------------------------------------------------------------------------------------
  Outfall1_UsJu        JUNCTION      0.00    66.43   455  22:00           0         120       0.000
  Outfall2_UsJu        JUNCTION      0.00    16.62   446  20:00           0        40.6       0.000
  Outfall3_UsJu        JUNCTION      0.00     0.01   446  19:49           0      0.0223       0.000
  Outfall4_UsJu        JUNCTION      0.00     1.48   455  22:00           0        2.14       0.000
  Outfall5_UsJu        JUNCTION      0.00     0.43   514  15:00           0        2.23       0.000
  Outfall6_UsJu        JUNCTION      0.00     0.33   455  23:15           0       0.028       0.000
  Catch1_Ju            JUNCTION     66.43    66.43   455  22:00         121         121       0.000
  Catch2_Ju            JUNCTION     16.64    16.64   446  20:00        43.4        43.4       0.000
  Catch3_Ju            JUNCTION      0.33     0.33   455  23:15       0.028       0.028       0.000
  Catch4_Ju            JUNCTION      1.48     1.48   455  22:00        2.14        2.14       0.000
  Catch5_Ju            JUNCTION      0.51     0.51   446  20:00        2.22        2.22       0.000
  Catch6_Ju            JUNCTION      0.33     0.33   455  23:15       0.028       0.028       0.000
  DryBasin1_InJu       JUNCTION      0.00    66.43   455  22:00           0         121       0.000
  DryBasin1_TrJu       JUNCTION      0.00     0.01    16  07:32           0        3.26       0.000
  DryBasin1_OuJu       JUNCTION      0.00    66.43   455  22:00           0         120       0.000
  InfiltrationBasin1_InJu JUNCTION      0.00    16.64   446  20:00           0        43.4       0.000
  InfiltrationBasin1_OuJu JUNCTION      0.00    16.62   446  20:00           0        40.6       0.000
  WetBasin1_InJu       JUNCTION      0.00     0.33   455  23:15           0       0.028       0.000
  WetBasin1_OuJu       JUNCTION      0.00     0.01   446  19:49           0      0.0223       0.000
  WetBasin1_WetTrJu    JUNCTION      0.00     0.00     0  00:00           0           0       0.000 gal
  WetBasin1_SurTrJu    JUNCTION      0.00     0.01   446  19:49           0      0.0223       0.000
  BedFilter1_InJu      JUNCTION      0.00     0.51   446  20:00           0        2.22       0.000
  BedFilter1_TrJu      JUNCTION      0.00     0.02    16  09:32           0        1.84       0.000
  BedFilter1_OuJu      JUNCTION      0.00     0.43   514  15:00           0        2.23       0.000
  CartridgeFilter1_InJu JUNCTION      0.00     1.48   455  22:00           0        2.14       0.000
  CartridgeFilter1_TrJu JUNCTION      0.00     0.00     0  00:00           0           0       0.000 gal
  CartridgeFilter1_OuJu JUNCTION      0.00     1.48   455  22:00           0        2.14       0.000
  TreatmentVault1_InJu JUNCTION      0.00     0.33   455  23:15           0       0.028       0.000
  TreatmentVault1_TrJu JUNCTION      0.00     0.00     0  00:00           0           0       0.000 gal
  TreatmentVault1_OuJu JUNCTION      0.00     0.33   455  23:15           0       0.028       0.000
  Outfall1             OUTFALL       0.00    66.43   455  22:00           0         120       0.000
  Outfall2             OUTFALL       0.00    16.62   446  20:00           0        40.6       0.000
  Outfall3             OUTFALL       0.00     0.01   446  19:49           0      0.0223       0.000
  Outfall4             OUTFALL       0.00     1.48   455  22:00           0        2.14       0.000
  Outfall5             OUTFALL       0.00     0.43   514  15:00           0        2.23       0.000
  Outfall6             OUTFALL       0.00     0.33   455  23:15           0       0.028       0.000
  GW                   OUTFALL       0.00     0.01    16  07:36           0        4.07       0.000
  WetBasin1_Di         DIVIDER       0.00     0.33   455  23:15           0       0.028       0.000
  CartridgeFilter1_Di  DIVIDER       0.00     1.48   455  22:00           0        2.14       0.000
  TreatmentVault1_Di   DIVIDER       0.00     0.33   455  23:15           0       0.028       0.000
  DryBasin1_St         STORAGE       0.00    66.43   455  22:00           0         121       0.005
  InfiltrationBasin1_St STORAGE       0.00    16.64   446  20:00           0        43.4       0.016
  WetBasin1_WetSt      STORAGE       0.00     0.03   455  21:41           0     0.00569    5689.564 gal
  WetBasin1_SurSt      STORAGE       0.00     0.30   455  23:15           0      0.0223      -0.033
  BedFilter1_St        STORAGE       0.00     0.51   446  20:00           0        2.22      -0.179
  
  
  **********************
  Node Surcharge Summary
  **********************
  
  Surcharging occurs when water rises above the top of the highest conduit.
  ---------------------------------------------------------------------
                                               Max. Height   Min. Depth
                                   Hours       Above Crown    Below Rim
  Node                 Type      Surcharged           Feet         Feet
  ---------------------------------------------------------------------
  Outfall1_UsJu        JUNCTION    17520.01          0.000        4.000
  Outfall2_UsJu        JUNCTION    17520.01          0.000        4.000
  Outfall3_UsJu        JUNCTION    17520.01          0.000        4.000
  Outfall4_UsJu        JUNCTION    17520.01          0.000        4.000
  Outfall5_UsJu        JUNCTION    17520.01          0.000        4.000
  Outfall6_UsJu        JUNCTION    17520.01          0.000        4.000
  Catch1_Ju            JUNCTION    17520.01          0.000        4.000
  Catch2_Ju            JUNCTION    17520.01          0.000        4.000
  Catch3_Ju            JUNCTION    17520.01          0.000        4.000
  Catch4_Ju            JUNCTION    17520.01          0.000        4.000
  Catch5_Ju            JUNCTION    17520.01          0.000        4.000
  Catch6_Ju            JUNCTION    17520.01          0.000        4.000
  DryBasin1_InJu       JUNCTION    17520.01          0.000        4.000
  DryBasin1_TrJu       JUNCTION    17520.01          0.000        4.000
  InfiltrationBasin1_InJu JUNCTION    17520.01          0.000        4.000
  WetBasin1_InJu       JUNCTION    17520.01          0.000        4.000
  WetBasin1_SurTrJu    JUNCTION    17520.01          0.000        4.000
  BedFilter1_InJu      JUNCTION    17520.01          0.000        4.000
  BedFilter1_TrJu      JUNCTION    17520.01          0.000        4.000
  CartridgeFilter1_InJu JUNCTION    17520.01          0.000        4.000
  CartridgeFilter1_TrJu JUNCTION    17520.01          0.000        4.000
  CartridgeFilter1_OuJu JUNCTION    17520.01          0.000        4.000
  TreatmentVault1_InJu JUNCTION    17520.01          0.000        4.000
  TreatmentVault1_TrJu JUNCTION    17520.01          0.000        4.000
  TreatmentVault1_OuJu JUNCTION    17520.01          0.000        4.000
  WetBasin1_Di         DIVIDER     17520.01          0.000        4.000
  CartridgeFilter1_Di  DIVIDER     17520.01          0.000        4.000
  TreatmentVault1_Di   DIVIDER     17520.01          0.000        4.000
  
  
  *********************
  Node Flooding Summary
  *********************
  
  No nodes were flooded.
  
  
  **********************
  Storage Volume Summary
  **********************
  
  --------------------------------------------------------------------------------------------------
                         Average     Avg  Evap Infil       Maximum     Max    Time of Max    Maximum
                          Volume    Pcnt  Pcnt  Pcnt        Volume    Pcnt     Occurrence    Outflow
  Storage Unit          1000 ft3    Full  Loss  Loss      1000 ft3    Full    days hr:min        CFS
  --------------------------------------------------------------------------------------------------
  DryBasin1_St             1.336      11     0     0         4.451      36     455  22:00      66.44
  InfiltrationBasin1_St     1.373      11     0     0         3.621      29     446  20:00      16.63
  WetBasin1_WetSt          0.118       1   100     0         0.718       6     490  14:15       0.00
  WetBasin1_SurSt          0.003       0     0     0         2.293      15     455  23:35       0.01
  BedFilter1_St            0.126       1     0     0         2.755      21     514  15:00       0.43
  
  
  ***********************
  Outfall Loading Summary
  ***********************
  
  -----------------------------------------------------------------------------------------------------------------------------------------------
                         Flow       Avg       Max       Total         Total         Total         Total         Total         Total         Total
                         Freq      Flow      Flow      Volume           TSS           FSP            TP           SRP            TN           DIN
  Outfall Node           Pcnt       CFS       CFS    10^6 gal           lbs           lbs           lbs           lbs           lbs           lbs
  -----------------------------------------------------------------------------------------------------------------------------------------------
  Outfall1              59.74      0.43     66.43     120.053    589740.570    399047.283      1026.428       164.147      3039.086       381.042
  Outfall2              25.47      0.34     16.62      40.622    348302.463    257721.833       553.881        52.391      1397.958       172.739
  Outfall3               0.33      0.01      0.01       0.022         6.134         6.134         0.056         0.014         0.283         0.003
  Outfall4               1.72      0.26      1.48       2.142      4839.221       482.136         2.143         0.679         6.428         2.357
  Outfall5              19.58      0.02      0.43       2.229       683.006       479.241         4.032         1.074        32.019         7.704
  Outfall6               0.05      0.12      0.33       0.028       236.487        23.765         0.355         0.112         0.545         0.003
  GW                    63.61      0.01      0.01       4.066     28353.414     20794.272        46.189         4.866       120.910        14.995
  -----------------------------------------------------------------------------------------------------------------------------------------------
  System                24.36      1.20     82.68     169.162    972161.295    678554.666      1633.085       223.283      4597.230       578.843
  
  
  ********************
  Link Flow Summary
  ********************
  
  -----------------------------------------------------------------------------
                                 Maximum  Time of Max   Maximum    Max/    Max/
                                  |Flow|   Occurrence   |Veloc|    Full    Full
  Link                 Type          CFS  days hr:min    ft/sec    Flow   Depth
  -----------------------------------------------------------------------------
  Outfall1_UsCo        DUMMY       66.43   455  22:00
  Outfall2_UsCo        DUMMY       16.62   446  20:00
  Outfall3_UsCo        DUMMY        0.01   446  19:49
  Outfall4_UsCo        DUMMY        1.48   455  22:00
  Outfall5_UsCo        DUMMY        0.43   514  15:00
  Outfall6_UsCo        DUMMY        0.33   455  23:15
  Catch1_DsCo          DUMMY       66.43   455  22:00
  Catch2_DsCo          DUMMY       16.64   446  20:00
  Catch3_DsCo          DUMMY        0.33   455  23:15
  Catch4_DsCo          DUMMY        1.48   455  22:00
  Catch5_DsCo          DUMMY        0.51   446  20:00
  Catch6_DsCo          DUMMY        0.33   455  23:15
  DryBasin1_DsCo       DUMMY       66.43   455  22:00
  InfiltrationBasin1_DsCo DUMMY       16.62   446  20:00
  WetBasin1_DsCo       DUMMY        0.01   446  19:49
  CartridgeFilter1_DsCo DUMMY        1.48   455  22:00
  BedFilter1_DsCo      DUMMY        0.43   514  15:00
  TreatmentVault1_DsCo DUMMY        0.33   455  23:15
  DryBasin1_OtCo       DUMMY        0.01    16  07:32
  DryBasin1_InCo       DUMMY       66.43   455  22:00
  InfiltrationBasin1_InCo DUMMY       16.64   446  20:00
  WetBasin1_InCo       DUMMY        0.33   455  23:15
  WetBasin1_WetInCo    DUMMY        0.03   455  21:41
  WetBasin1_SurInCo    DUMMY        0.30   455  23:15
  WetBasin1_WetOtCo    DUMMY        0.00     0  00:00
  WetBasin1_SurOtCo    DUMMY        0.01   446  19:49
  BedFilter1_OtCo      DUMMY        0.02    16  09:32
  BedFilter1_InCo      DUMMY        0.51   446  20:00
  CartridgeFilter1_OtCo DUMMY        0.00     0  00:00
  CartridgeFilter1_TrCo DUMMY        0.00     0  00:00
  CartridgeFilter1_ByCo DUMMY        1.48   455  22:00
  CartridgeFilter1_InCo DUMMY        1.48   455  22:00
  TreatmentVault1_OtCo DUMMY        0.00     0  00:00
  TreatmentVault1_TrCo DUMMY        0.00     0  00:00
  TreatmentVault1_ByCo DUMMY        0.33   455  23:15
  TreatmentVault1_InCo DUMMY        0.33   455  23:15
  DryBasin1_ByWe       WEIR        66.42   455  22:00                      0.00
  InfiltrationBasin1_ByWe WEIR        16.62   446  20:00                      0.00
  WetBasin1_WetTrWe    WEIR         0.00     0  00:00                      0.00
  WetBasin1_SurByWe    WEIR         0.00     0  00:00                      0.00
  BedFilter1_ByWe      WEIR         0.41   514  15:00                      0.00
  DryBasin1_TrOl       DUMMY        0.01    16  07:32
  DryBasin1_GwOl       DUMMY        0.00    16  07:32
  InfiltrationBasin1_GwOl DUMMY        0.01    16  07:36
  WetBasin1_SurTrOl    DUMMY        0.01   446  19:49
  BedFilter1_GwOl      DUMMY        0.02    16  09:32
  
  
  *************************
  Conduit Surcharge Summary
  *************************
  
  No conduits were surcharged.
  
  
  ***************************
  Link Pollutant Load Summary
  ***************************
  
  --------------------------------------------------------------------------------------------------------
                                 TSS           FSP            TP           SRP            TN           DIN
  Link                           lbs           lbs           lbs           lbs           lbs           lbs
  --------------------------------------------------------------------------------------------------------
  Outfall1_UsCo           5.897e+005    3.990e+005      1026.428       164.147      3039.086       381.042
  Outfall2_UsCo           3.483e+005    2.577e+005       553.881        52.391      1397.958       172.739
  Outfall3_UsCo                6.134         6.134         0.056         0.014         0.283         0.003
  Outfall4_UsCo             4839.221       482.136         2.143         0.679         6.428         2.357
  Outfall5_UsCo              683.006       479.241         4.032         1.074        32.019         7.704
  Outfall6_UsCo              236.487        23.765         0.355         0.112         0.545         0.003
  Catch1_DsCo             6.133e+005    4.158e+005      1063.511       168.175      3127.692       392.850
  Catch2_DsCo             3.702e+005    2.739e+005       588.946        55.768      1486.805       183.674
  Catch3_DsCo                236.546        23.771         0.355         0.112         0.545         0.003
  Catch4_DsCo               4839.465       482.161         2.143         0.679         6.429         2.357
  Catch5_DsCo               2747.578      1593.595        10.771         2.638        52.094         7.693
  Catch6_DsCo                236.546        23.771         0.355         0.112         0.545         0.003
  DryBasin1_DsCo          5.898e+005    3.991e+005      1026.605       164.176      3039.623       381.113
  InfiltrationBasin1_DsCo    3.483e+005    2.578e+005       553.943        52.394      1398.096       172.759
  WetBasin1_DsCo               6.135         6.135         0.056         0.014         0.283         0.003
  CartridgeFilter1_DsCo      4839.322       482.146         2.143         0.679         6.429         2.357
  BedFilter1_DsCo            683.053       479.274         4.033         1.075        32.022         7.704
  TreatmentVault1_DsCo       236.506        23.767         0.355         0.112         0.545         0.003
  DryBasin1_OtCo             679.138       679.122         4.346         1.357        29.840         3.257
  DryBasin1_InCo          6.131e+005    4.156e+005      1063.133       168.159      3126.684       392.711
  InfiltrationBasin1_InCo    3.701e+005    2.738e+005       588.834        55.767      1486.580       183.639
  WetBasin1_InCo             236.536        23.770         0.355         0.112         0.545         0.003
  WetBasin1_WetInCo           47.874         4.811         0.072         0.023         0.110         0.001
  WetBasin1_SurInCo          188.649        18.958         0.283         0.089         0.435         0.003
  WetBasin1_WetOtCo            0.000         0.000         0.000         0.000         0.000         0.000
  WetBasin1_SurOtCo            6.135         6.135         0.056         0.014         0.283         0.003
  BedFilter1_OtCo            197.904       197.893         2.131         0.609        22.825         6.346
  BedFilter1_InCo           2747.607      1593.612        10.771         2.638        52.095         7.693
  CartridgeFilter1_OtCo         0.000         0.000         0.000         0.000         0.000         0.000
  CartridgeFilter1_TrCo         0.000         0.000         0.000         0.000         0.000         0.000
  CartridgeFilter1_ByCo      4839.396       482.154         2.143         0.679         6.429         2.357
  CartridgeFilter1_InCo      4839.444       482.159         2.143         0.679         6.429         2.357
  TreatmentVault1_OtCo         0.000         0.000         0.000         0.000         0.000         0.000
  TreatmentVault1_TrCo         0.000         0.000         0.000         0.000         0.000         0.000
  TreatmentVault1_ByCo       236.523        23.769         0.355         0.112         0.545         0.003
  TreatmentVault1_InCo       236.536        23.770         0.355         0.112         0.545         0.003
  DryBasin1_ByWe          5.892e+005    3.985e+005      1022.430       162.846      3010.308       377.925
  InfiltrationBasin1_ByWe    3.484e+005    2.578e+005       554.004        52.396      1398.232       172.778
  WetBasin1_WetTrWe            0.000         0.000         0.000         0.000         0.000         0.000
  WetBasin1_SurByWe            0.000         0.000         0.000         0.000         0.000         0.000
  BedFilter1_ByWe            485.173       281.400         1.902         0.466         9.199         1.358
  DryBasin1_TrOl          1.690e+004    1.208e+004        28.847         3.767        82.463        10.474
  DryBasin1_GwOl            6762.262      4835.771        11.544         1.507        32.999         4.191
  InfiltrationBasin1_GwOl    2.159e+004    1.596e+004        34.645         3.359        87.911        10.803
  WetBasin1_SurTrOl          188.710        18.964         0.283         0.089         0.435         0.003
  BedFilter1_GwOl           2266.418      1314.522         8.884         2.176        42.971         6.346
  

  Analysis begun on:  Fri Jun 13 14:04:04 2014
  Analysis ended on:  Fri Jun 13 14:04:32 2014
  Total elapsed time: 00:00:28